# Generated by pormake.
# Topology dft, (4)-cn, num edge types: 1
# Building blocks:
#     Node 0, Type 0, BuildingBlock: ICAMEG_clean_sbu_1, # of connection points: 4
#     Node 1, Type 0, BuildingBlock: ICAMEG_clean_sbu_1, # of connection points: 4
#     Node 2, Type 0, BuildingBlock: ICAMEG_clean_sbu_1, # of connection points: 4
#     Node 3, Type 0, BuildingBlock: ICAMEG_clean_sbu_1, # of connection points: 4
#     Node 4, Type 0, BuildingBlock: ICAMEG_clean_sbu_1, # of connection points: 4
#     Node 5, Type 0, BuildingBlock: ICAMEG_clean_sbu_1, # of connection points: 4
#     Node 6, Type 0, BuildingBlock: ICAMEG_clean_sbu_1, # of connection points: 4
#     Node 7, Type 0, BuildingBlock: ICAMEG_clean_sbu_1, # of connection points: 4
#     Edge 8, Type (0, 0), None
#     Edge 9, Type (0, 0), None
#     Edge 10, Type (0, 0), None
#     Edge 11, Type (0, 0), None
#     Edge 12, Type (0, 0), None
#     Edge 13, Type (0, 0), None
#     Edge 14, Type (0, 0), None
#     Edge 15, Type (0, 0), None
#     Edge 16, Type (0, 0), None
#     Edge 17, Type (0, 0), None
#     Edge 18, Type (0, 0), None
#     Edge 19, Type (0, 0), None
#     Edge 20, Type (0, 0), None
#     Edge 21, Type (0, 0), None
#     Edge 22, Type (0, 0), None
#     Edge 23, Type (0, 0), None
# Relax obj value: 0.219
# Max RMSD: 0.215
# Mean RMSD: 0.215
data_MOF--net-dft--node1-ICAMEG_clean_sbu_1--edge1-none
_symmetry_space_group_name_H-M    P1
_symmetry_Int_Tables_number       1
_symmetry_cell_setting            triclinic
loop_
_symmetry_equiv_pos_as_xyz
'x, y, z'
_cell_length_a     15.71886
_cell_length_b     15.718893
_cell_length_c     25.482308
_cell_angle_alpha  90.091486
_cell_angle_beta   89.909948
_cell_angle_gamma 89.990439
loop_
_atom_site_label
_atom_site_type_symbol
_atom_site_fract_x
_atom_site_fract_y
_atom_site_fract_z
_atom_type_partial_charge
Co0 Co 0.2259 0.16445 0.0864 0.0
Co1 Co 0.39178 0.08001 0.16244 0.0
O2 O 0.33447 0.10727 0.09711 0.0
C3 C 0.25374 0.07027 -0.01658 0.0
O4 O 0.32376 0.03094 -0.00347 0.0
C5 C 0.54856 0.10355 0.09723 0.0
O6 O 0.53365 0.13672 0.05093 0.0
O7 O 0.35541 0.19608 0.19351 0.0
O8 O 0.24818 0.24414 0.14383 0.0
H9 H 0.4748 0.10995 0.35484 0.0
H10 H 0.38713 0.16669 0.02044 0.0
O11 O 0.20178 0.09067 0.0207 0.0
H12 H 0.27557 0.45788 0.01053 0.0
H13 H 0.98626 0.28394 -0.02675 0.0
H14 H 0.1072 0.26865 0.14709 0.0
H15 H 0.198 0.34927 0.05876 0.0
H16 H 0.11835 0.19883 -0.00862 0.0
O17 O 0.50422 0.12924 0.13633 0.0
H18 H 0.40808 0.15593 0.27327 0.0
H19 H 0.54256 0.96697 0.18906 0.0
H20 H 0.96244 0.33128 0.13533 0.0
H21 H 0.47103 0.27524 -0.02216 0.0
H22 H 0.90508 0.34207 0.04615 0.0
H23 H 0.41432 0.42233 -0.03064 0.0
O24 O 0.17052 0.08148 0.146 0.0
H25 H 0.47903 0.87083 0.01887 0.0
H26 H 0.38347 0.90393 0.20071 0.0
H27 H 0.40766 0.75861 0.1643 0.0
H28 H 0.45912 0.74281 0.07348 0.0
H29 H 0.44222 1.01065 0.05374 0.0
H30 H 0.60901 0.91742 0.26988 0.0
H31 H 0.57092 0.98513 0.35477 0.0
O32 O 0.28195 0.02914 0.19192 0.0
C33 C 0.29533 0.25031 0.18355 0.0
C34 C 0.48651 0.07539 0.3188 0.0
C35 C 0.56146 0.96719 0.27136 0.0
N36 N 0.45687 0.05345 0.22697 0.0
C37 C 0.44772 0.10052 0.27191 0.0
C38 C 0.52143 0.99457 0.22552 0.0
C39 C 0.54083 1.00567 0.31877 0.0
C40 C 0.36059 0.22927 0.01848 0.0
N41 N 0.28331 0.2478 0.04054 0.0
C42 C 0.40898 0.29133 -0.00672 0.0
C43 C 0.37767 0.3737 -0.01083 0.0
C44 C 0.29985 0.39347 0.01203 0.0
C45 C 0.25473 0.33024 0.03864 0.0
C46 C 1.01026 0.27459 0.01233 0.0
C47 C 0.07532 0.26258 0.11115 0.0
C48 C 0.08457 0.22756 0.02284 0.0
N49 N 0.11588 0.22036 0.07249 0.0
C50 C 0.9959 0.30122 0.10349 0.0
C51 C 0.9638 0.30816 0.05339 0.0
C52 C 0.20075 0.03914 0.18736 0.0
C53 C 0.45721 0.87726 0.05873 0.0
C54 C 0.403 0.89632 0.16074 0.0
C55 C 0.41776 0.81462 0.14062 0.0
C56 C 0.44642 0.80539 0.08946 0.0
N57 N 0.41698 0.96736 0.13133 0.0
C58 C 0.43878 0.95734 0.07965 0.0
Co59 Co 1.0208 0.22635 0.58416 0.0
Co60 Co 0.10549 0.39157 0.66071 0.0
O61 O 0.07791 0.33485 0.59504 0.0
C62 C 0.11336 0.25378 0.48075 0.0
O63 O 0.15138 0.32441 0.49422 0.0
C64 C 0.08446 0.54987 0.59672 0.0
O65 O 0.05236 0.53603 0.54996 0.0
O66 O 0.9886 0.3564 0.69152 0.0
O67 O 0.94178 0.2485 0.64179 0.0
H68 H 0.07771 0.47235 0.85333 0.0
H69 H 1.01753 0.38889 0.51929 0.0
O70 O 0.09294 0.20174 0.51783 0.0
H71 H 0.72673 0.2764 0.50952 0.0
H72 H 0.89355 0.98733 0.47329 0.0
H73 H 0.92558 0.10612 0.64677 0.0
H74 H 0.83631 0.1985 0.5567 0.0
H75 H 0.98033 0.12084 0.48989 0.0
O76 O 0.05762 0.50477 0.63509 0.0
H77 H 0.03194 0.40592 0.77125 0.0
H78 H 0.22078 0.54063 0.68772 0.0
H79 H 0.86484 0.95908 0.63643 0.0
H80 H 0.90841 0.47278 0.47751 0.0
H81 H 0.84599 0.90328 0.54741 0.0
H82 H 0.76147 0.41576 0.46914 0.0
O83 O 0.10448 0.17057 0.64295 0.0
H84 H 0.31534 0.47882 0.51787 0.0
H85 H 0.28156 0.37855 0.69866 0.0
H86 H 0.42734 0.40197 0.662 0.0
H87 H 0.44324 0.45606 0.57207 0.0
H88 H 0.17532 0.44204 0.55237 0.0
H89 H 0.27041 0.6067 0.76879 0.0
H90 H 0.20241 0.56868 0.85352 0.0
O91 O 0.15437 0.28168 0.69037 0.0
C92 C 0.93452 0.29619 0.68122 0.0
C93 C 0.11207 0.48446 0.81729 0.0
C94 C 0.22037 0.55945 0.77008 0.0
N95 N 0.13335 0.45576 0.7253 0.0
C96 C 0.08694 0.44583 0.77029 0.0
C97 C 0.19287 0.51971 0.7241 0.0
C98 C 0.18176 0.53882 0.81742 0.0
C99 C 0.95513 0.36194 0.51725 0.0
N100 N 0.93703 0.28426 0.53884 0.0
C101 C 0.89269 0.41047 0.49257 0.0
C102 C 0.81038 0.379 0.48855 0.0
C103 C 0.79106 0.30087 0.51097 0.0
C104 C 0.8547 0.25561 0.53704 0.0
C105 C 0.90731 1.01069 0.51203 0.0
C106 C 0.9279 0.07441 0.61063 0.0
C107 C 0.95432 0.08559 0.52146 0.0
N108 N 0.96504 0.1164 0.57087 0.0
C109 C 0.89079 0.99394 0.60386 0.0
C110 C 0.87934 0.96258 0.55385 0.0
C111 C 0.14544 0.20062 0.68488 0.0
C112 C 0.30877 0.456 0.55747 0.0
C113 C 0.28937 0.39936 0.65891 0.0
C114 C 0.3712 0.4136 0.63875 0.0
C115 C 0.38057 0.44366 0.58798 0.0
N116 N 0.21846 0.41521 0.62975 0.0
C117 C 0.2286 0.43781 0.57825 0.0
Co118 Co 0.95133 1.01723 0.08475 0.0
Co119 Co 0.78958 0.10287 0.16484 0.0
O120 O 0.83993 0.07072 0.09705 0.0
C121 C 0.9171 0.10981 -0.01823 0.0
O122 O 0.84677 0.14651 -0.00238 0.0
C123 C 0.62977 0.0564 0.10403 0.0
O124 O 0.66697 0.02464 0.0625 0.0
O125 O 0.82582 0.98591 0.19527 0.0
O126 O 0.93362 0.94062 0.14423 0.0
H127 H 0.72025 0.07963 0.35924 0.0
H128 H 0.79464 1.00915 0.0148 0.0
O129 O 0.97154 0.08732 0.01693 0.0
H130 H 0.90754 0.71843 0.01525 0.0
H131 H 0.18149 0.88616 -0.02898 0.0
H132 H 0.07862 0.9327 0.14753 0.0
H133 H 0.97929 0.8312 0.06384 0.0
H134 H 0.05058 0.97309 -0.00976 0.0
O135 O 0.67033 0.062 0.14703 0.0
H136 H 0.78196 0.0327 0.27557 0.0
H137 H 0.64689 0.22408 0.19539 0.0
H138 H 0.22517 0.87124 0.13462 0.0
H139 H 0.71658 0.89812 -0.03 0.0
H140 H 0.27321 0.84426 0.04409 0.0
H141 H 0.77425 0.75097 -0.03297 0.0
O142 O 1.0099 0.10435 0.14042 0.0
H143 H 0.679 0.30338 0.02438 0.0
H144 H 0.81399 0.2812 0.19715 0.0
H145 H 0.78722 0.42473 0.15812 0.0
H146 H 0.71562 0.43501 0.07258 0.0
H147 H 0.72145 0.1659 0.05944 0.0
H148 H 0.58759 0.27643 0.27782 0.0
H149 H 0.62733 0.2067 0.36157 0.0
O150 O 0.90195 0.15087 0.1907 0.0
C151 C 0.88686 0.93273 0.18415 0.0
C152 C 0.70771 0.11459 0.32356 0.0
C153 C 0.63375 0.22533 0.27813 0.0
N154 N 0.73259 0.13534 0.23113 0.0
C155 C 0.74356 0.08872 0.27578 0.0
C156 C 0.67032 0.19677 0.23133 0.0
C157 C 0.65525 0.18571 0.32492 0.0
C158 C 0.82111 0.94679 0.01501 0.0
N159 N 0.89506 0.92985 0.04104 0.0
C160 C 0.77634 0.88322 -0.01138 0.0
C161 C 0.80808 0.80076 -0.01234 0.0
C162 C 0.88266 0.78264 0.01458 0.0
C163 C 0.92409 0.84767 0.04185 0.0
C164 C 0.16248 0.90212 0.01038 0.0
C165 C 0.10724 0.9309 0.11037 0.0
C166 C 0.0884 0.94921 0.02096 0.0
N167 N 0.06158 0.96357 0.07074 0.0
C168 C 0.18745 0.89384 0.10223 0.0
C169 C 0.2144 0.87795 0.05149 0.0
C170 C 0.98242 0.14461 0.18309 0.0
C171 C 0.71006 0.29957 0.062 0.0
C172 C 0.78671 0.28668 0.1588 0.0
C173 C 0.77014 0.36718 0.13749 0.0
C174 C 0.73009 0.37335 0.08917 0.0
N175 N 0.76445 0.21415 0.13288 0.0
C176 C 0.73099 0.22072 0.0835 0.0
Co177 Co 0.168 0.95171 0.58694 0.0
Co178 Co 0.08266 0.78921 0.66657 0.0
O179 O 0.11459 0.84021 0.59908 0.0
C180 C 0.07357 0.9171 0.48445 0.0
O181 O 0.03644 0.847 0.50013 0.0
C182 C 0.13141 0.63095 0.60484 0.0
O183 O 0.16379 0.66914 0.56395 0.0
O184 O 0.19868 0.82691 0.69735 0.0
O185 O 0.24538 0.93381 0.64621 0.0
H186 H 0.10727 0.71831 0.86102 0.0
H187 H 0.17539 0.79621 0.51582 0.0
O188 O 0.09616 0.97151 0.51975 0.0
H189 H 0.46628 0.90873 0.5164 0.0
H190 H 0.29187 0.18222 0.47062 0.0
H191 H 0.26178 0.0775 0.64802 0.0
H192 H 0.35428 0.97951 0.5663 0.0
H193 H 0.20623 0.05278 0.49128 0.0
O194 O 0.12529 0.67055 0.64826 0.0
H195 H 0.15461 0.78036 0.77789 0.0
H196 H 0.96416 0.64445 0.69674 0.0
H197 H 0.32444 0.22209 0.63382 0.0
H198 H 0.28592 0.71907 0.46977 0.0
H199 H 0.34374 0.27121 0.54282 0.0
H200 H 0.43312 0.77665 0.46684 0.0
O201 O 0.08166 1.00995 0.64351 0.0
H202 H 0.8837 0.67889 0.52486 0.0
H203 H 0.90406 0.8082 0.69945 0.0
H204 H 0.76112 0.78087 0.66042 0.0
H205 H 0.75158 0.71225 0.57359 0.0
H206 H 1.02075 0.72147 0.5606 0.0
H207 H 0.91194 0.58454 0.77889 0.0
H208 H 0.98077 0.62482 0.86289 0.0
O209 O 0.03222 0.90146 0.69204 0.0
C210 C 0.25209 0.88772 0.68649 0.0
C211 C 0.07243 0.70592 0.82525 0.0
C212 C 0.9625 0.63127 0.77943 0.0
N213 N 0.05145 0.73135 0.73287 0.0
C214 C 0.0984 0.74193 0.7776 0.0
C215 C 0.99092 0.66823 0.7328 0.0
C216 C 1.00165 0.65304 0.82636 0.0
C217 C 0.2378 0.8226 0.51603 0.0
N218 N 0.25501 0.89598 0.54268 0.0
C219 C 0.30109 0.77838 0.48895 0.0
C220 C 0.38355 0.81007 0.488 0.0
C221 C 0.402 0.88402 0.51564 0.0
C222 C 0.33728 0.92494 0.54358 0.0
C223 C 0.27999 0.1626 0.51041 0.0
C224 C 0.25946 0.10637 0.61095 0.0
C225 C 0.23273 0.0892 0.52204 0.0
N226 N 0.22174 0.06204 0.57222 0.0
C227 C 0.29789 0.18556 0.60198 0.0
C228 C 0.30952 0.21302 0.55097 0.0
C229 C 0.0398 0.98217 0.68551 0.0
C230 C 0.88711 0.7088 0.56289 0.0
C231 C 0.899 0.78248 0.6607 0.0
C232 C 0.81873 0.76543 0.63929 0.0
C233 C 0.81305 0.72704 0.59036 0.0
N234 N 0.97185 0.76234 0.63443 0.0
C235 C 0.96573 0.72999 0.58469 0.0
Co236 Co 0.22661 1.02055 0.82674 0.0
Co237 Co 0.39184 0.10522 0.7502 0.0
O238 O 0.3351 0.07763 0.81585 0.0
C239 C 0.25397 0.11322 0.93011 0.0
O240 O 0.32458 0.15132 0.9167 0.0
C241 C 0.55017 0.08406 0.81415 0.0
O242 O 0.53659 0.05178 0.8609 0.0
O243 O 0.35657 0.98838 0.71936 0.0
O244 O 0.2488 0.94141 0.76917 0.0
H245 H 0.4728 0.07737 0.55761 0.0
H246 H 0.38913 1.01741 0.89165 0.0
O247 O 0.20196 0.09281 0.89302 0.0
H248 H 0.27671 0.72658 0.90149 0.0
H249 H 0.98762 0.89339 0.93765 0.0
H250 H 0.10635 0.92543 0.76414 0.0
H251 H 0.19881 0.83609 0.85425 0.0
H252 H 0.12114 0.98014 0.92103 0.0
O253 O 0.50498 0.0572 0.77582 0.0
H254 H 0.40643 0.03155 0.6397 0.0
H255 H 0.54081 0.22069 0.72318 0.0
H256 H 0.95931 0.86466 0.77451 0.0
H257 H 0.47299 0.90836 0.93352 0.0
H258 H 0.90354 0.84581 0.86353 0.0
H259 H 0.41601 0.76141 0.94191 0.0
O260 O 0.17084 0.10414 0.7679 0.0
H261 H 0.4792 0.3148 0.89316 0.0
H262 H 0.37876 0.28135 0.71238 0.0
H263 H 0.40211 0.42707 0.74916 0.0
H264 H 0.45631 0.4428 0.83908 0.0
H265 H 0.44243 0.17484 0.85857 0.0
H266 H 0.60681 0.27036 0.64212 0.0
H267 H 0.56893 0.20223 0.5574 0.0
O268 O 0.28197 0.15419 0.72055 0.0
C269 C 0.29648 0.93422 0.72973 0.0
C270 C 0.48484 0.11179 0.59364 0.0
C271 C 0.55964 0.22024 0.64083 0.0
N272 N 0.45606 0.13311 0.68562 0.0
C273 C 0.44624 0.08663 0.64065 0.0
C274 C 0.51992 0.19272 0.68682 0.0
C275 C 0.53909 0.18156 0.5935 0.0
C276 C 0.36218 0.95501 0.89371 0.0
N277 N 0.28452 0.93686 0.87211 0.0
C278 C 0.4107 0.89261 0.91843 0.0
C279 C 0.37926 0.81029 0.92247 0.0
C280 C 0.30116 0.79092 0.90002 0.0
C281 C 0.25589 0.85452 0.87393 0.0
C282 C 1.01096 0.90713 0.8989 0.0
C283 C 0.07465 0.92771 0.80029 0.0
C284 C 0.08587 0.95411 0.88946 0.0
N285 N 0.11666 0.96481 0.84005 0.0
C286 C 0.99418 0.8906 0.80707 0.0
C287 C 0.96284 0.87915 0.85708 0.0
C288 C 0.20091 0.14517 0.726 0.0
C289 C 0.45634 0.3083 0.85357 0.0
C290 C 0.3996 0.28909 0.75214 0.0
C291 C 0.41381 0.37088 0.77235 0.0
C292 C 0.44393 0.38017 0.82312 0.0
N293 N 0.41553 0.21813 0.78123 0.0
C294 C 0.43817 0.22817 0.83273 0.0
Co295 Co 0.16471 0.22574 0.32451 0.0
Co296 Co 0.08033 0.39162 0.24845 0.0
O297 O 0.1076 0.33433 0.31378 0.0
C298 C 0.07042 0.2536 0.42743 0.0
O299 O 0.03104 0.32361 0.41436 0.0
C300 C 0.10409 0.54844 0.31362 0.0
O301 O 0.13751 0.53374 0.35988 0.0
O302 O 0.19635 0.35513 0.21735 0.0
O303 O 0.24452 0.24802 0.26713 0.0
H304 H 0.11031 0.47468 0.05606 0.0
H305 H 0.16688 0.38698 0.3905 0.0
O306 O 0.09082 0.20164 0.39016 0.0
H307 H 0.45806 0.27538 0.40048 0.0
H308 H 0.28416 0.98623 0.43774 0.0
H309 H 0.26868 0.10693 0.26383 0.0
H310 H 0.34949 0.19786 0.35218 0.0
H311 H 0.19908 0.11833 0.41956 0.0
O312 O 0.12971 0.50402 0.27453 0.0
H313 H 0.15634 0.40805 0.13765 0.0
H314 H 0.96715 0.54232 0.22179 0.0
H315 H 0.3313 0.96216 0.27563 0.0
H316 H 0.27538 0.47078 0.43322 0.0
H317 H 0.34218 0.90492 0.36485 0.0
H318 H 0.42246 0.41407 0.44172 0.0
O319 O 0.0818 0.17037 0.26487 0.0
H320 H 0.87144 0.47909 0.39211 0.0
H321 H 0.90419 0.38325 0.21031 0.0
H322 H 0.75893 0.40741 0.24682 0.0
H323 H 0.74331 0.45904 0.33762 0.0
H324 H 1.0112 0.44226 0.35717 0.0
H325 H 0.91754 0.60864 0.14095 0.0
H326 H 0.98534 0.5706 0.05609 0.0
O327 O 0.02936 0.28181 0.219 0.0
C328 C 0.25064 0.29515 0.2274 0.0
C329 C 0.07571 0.48634 0.09209 0.0
C330 C 0.96738 0.56116 0.13949 0.0
N331 N 0.05375 0.4567 0.18392 0.0
C332 C 0.10087 0.44761 0.13899 0.0
C333 C 0.99478 0.52119 0.18535 0.0
C334 C 1.00591 0.54056 0.09209 0.0
C335 C 0.22945 0.36041 0.39249 0.0
N336 N 0.248 0.28314 0.37042 0.0
C337 C 0.29149 0.40876 0.41775 0.0
C338 C 0.37386 0.37744 0.42187 0.0
C339 C 0.39365 0.29966 0.39898 0.0
C340 C 0.33044 0.25457 0.37232 0.0
C341 C 0.27479 1.01017 0.39864 0.0
C342 C 0.26267 0.07509 0.29979 0.0
C343 C 0.22778 0.08449 0.38811 0.0
N344 N 0.22055 0.11573 0.33845 0.0
C345 C 0.30129 0.99567 0.30748 0.0
C346 C 0.30829 0.96364 0.3576 0.0
C347 C 0.03941 0.20061 0.22354 0.0
C348 C 0.8778 0.4572 0.35226 0.0
C349 C 0.89666 0.40284 0.25027 0.0
C350 C 0.81499 0.4176 0.27045 0.0
C351 C 0.80586 0.44633 0.3216 0.0
N352 N 0.96775 0.41691 0.27961 0.0
C353 C 0.95783 0.43878 0.33129 0.0
Co354 Co 0.95186 0.1678 0.82398 0.0
Co355 Co 0.7894 0.08247 0.74432 0.0
O356 O 0.84036 0.11442 0.81181 0.0
C357 C 0.91725 0.07336 0.92644 0.0
O358 O 0.84714 0.0362 0.9108 0.0
C359 C 0.63109 0.13129 0.80598 0.0
O360 O 0.66922 0.16381 0.84686 0.0
O361 O 0.82717 0.19846 0.71353 0.0
O362 O 0.93398 0.24525 0.76474 0.0
H363 H 0.7185 0.10705 0.54987 0.0
H364 H 0.7963 0.17512 0.89506 0.0
O365 O 0.97167 0.0959 0.89114 0.0
H366 H 0.90884 0.46601 0.89461 0.0
H367 H 0.18221 0.29178 0.94035 0.0
H368 H 0.07777 0.26122 0.7629 0.0
H369 H 0.97962 0.35405 0.84466 0.0
H370 H 0.05276 0.20614 0.91967 0.0
O371 O 0.67073 0.12514 0.76257 0.0
H372 H 0.78048 0.15444 0.63301 0.0
H373 H 0.64472 0.96384 0.71411 0.0
H374 H 0.22238 0.3239 0.77713 0.0
H375 H 0.71919 0.2856 0.94118 0.0
H376 H 0.27137 0.34341 0.86815 0.0
H377 H 0.77678 0.43279 0.94417 0.0
O378 O 1.01013 0.0815 0.7674 0.0
H379 H 0.67898 0.8837 0.88609 0.0
H380 H 0.80845 0.90382 0.71153 0.0
H381 H 0.78114 0.76093 0.75063 0.0
H382 H 0.71243 0.7515 0.83745 0.0
H383 H 0.72158 1.0207 0.85028 0.0
H384 H 0.58492 0.91155 0.63195 0.0
H385 H 0.62516 0.98044 0.54797 0.0
O386 O 0.90165 0.03199 0.71888 0.0
C387 C 0.88788 0.25193 0.72445 0.0
C388 C 0.70614 0.07219 0.58562 0.0
C389 C 0.6316 0.96216 0.63142 0.0
N390 N 0.73157 0.05121 0.67801 0.0
C391 C 0.74211 0.09818 0.63329 0.0
C392 C 0.66851 0.99062 0.67806 0.0
C393 C 0.65335 1.00134 0.5845 0.0
C394 C 0.82271 0.23753 0.8949 0.0
N395 N 0.89611 0.25476 0.86826 0.0
C396 C 0.7785 0.30079 0.92201 0.0
C397 C 0.8102 0.38325 0.92298 0.0
C398 C 0.88414 0.40173 0.89535 0.0
C399 C 0.92506 0.33703 0.86739 0.0
C400 C 0.16266 0.27982 0.90055 0.0
C401 C 0.1066 0.25904 0.8 0.0
C402 C 0.08926 0.23257 0.88892 0.0
N403 N 0.06217 0.22149 0.83874 0.0
C404 C 0.18579 0.29746 0.80897 0.0
C405 C 0.21317 0.30922 0.86 0.0
C406 C 0.98236 0.03959 0.72541 0.0
C407 C 0.70892 0.88705 0.84806 0.0
C408 C 0.78269 0.89881 0.75027 0.0
C409 C 0.76566 0.81857 0.77172 0.0
C410 C 0.72721 0.81296 0.82064 0.0
N411 N 0.7625 0.97169 0.77649 0.0
C412 C 0.73011 0.96565 0.82622 0.0
Co413 Co 1.0174 0.95107 0.32616 0.0
Co414 Co 0.10303 0.78932 0.24606 0.0
O415 O 0.07087 0.83967 0.31385 0.0
C416 C 0.11002 0.91689 0.42913 0.0
O417 O 0.14674 0.84654 0.41331 0.0
C418 C 0.05658 0.62945 0.30682 0.0
O419 O 0.02469 0.66652 0.34836 0.0
O420 O 0.98611 0.82565 0.21561 0.0
O421 O 0.9407 0.93335 0.26673 0.0
H422 H 0.07981 0.71992 0.05168 0.0
H423 H 1.00941 0.79432 0.39607 0.0
O424 O 0.08756 0.97131 0.39395 0.0
H425 H 0.71869 0.90723 0.39578 0.0
H426 H 0.8863 0.18119 0.43991 0.0
H427 H 0.93314 0.07843 0.26338 0.0
H428 H 0.83139 0.979 0.34714 0.0
H429 H 0.97322 0.05025 0.42068 0.0
O430 O 0.06204 0.67008 0.26384 0.0
H431 H 0.03281 0.78154 0.13536 0.0
H432 H 0.22436 0.64669 0.21551 0.0
H433 H 0.87167 0.22501 0.2763 0.0
H434 H 0.89845 0.71626 0.44092 0.0
H435 H 0.84455 0.27298 0.36683 0.0
H436 H 0.7513 0.77394 0.44397 0.0
O437 O 0.10446 1.00964 0.27046 0.0
H438 H 0.30333 0.67866 0.38661 0.0
H439 H 0.28141 0.81374 0.21386 0.0
H440 H 0.42488 0.787 0.25298 0.0
H441 H 0.43504 0.71533 0.33851 0.0
H442 H 0.16592 0.72118 0.3515 0.0
H443 H 0.27679 0.5875 0.13307 0.0
H444 H 0.20701 0.62718 0.04933 0.0
O445 O 0.1511 0.90168 0.22023 0.0
C446 C 0.93286 0.88659 0.2268 0.0
C447 C 0.1148 0.70742 0.08736 0.0
C448 C 0.22564 0.6336 0.13277 0.0
N449 N 0.13554 0.73232 0.17978 0.0
C450 C 0.08888 0.74323 0.13514 0.0
C451 C 0.19703 0.67012 0.17957 0.0
C452 C 0.18599 0.65507 0.08598 0.0
C453 C 0.94706 0.82082 0.3959 0.0
N454 N 0.93008 0.89479 0.3699 0.0
C455 C 0.88352 0.77604 0.42232 0.0
C456 C 0.80107 0.80777 0.42332 0.0
C457 C 0.7829 0.88236 0.39642 0.0
C458 C 0.8479 0.9238 0.36912 0.0
C459 C 0.90231 0.1622 0.40055 0.0
C460 C 0.93123 0.10703 0.30056 0.0
C461 C 0.94938 0.08811 0.38997 0.0
N462 N 0.96378 0.06132 0.34019 0.0
C463 C 0.89419 0.18725 0.30869 0.0
C464 C 0.87822 0.21416 0.35944 0.0
C465 C 0.14478 0.98215 0.22781 0.0
C466 C 0.29958 0.70974 0.349 0.0
C467 C 0.28683 0.78644 0.2522 0.0
C468 C 0.36731 0.76988 0.27356 0.0
C469 C 0.3734 0.7298 0.32188 0.0
N470 N 0.21427 0.76414 0.27807 0.0
C471 C 0.22076 0.73069 0.32746 0.0
loop_
_geom_bond_atom_site_label_1
_geom_bond_atom_site_label_2
_geom_bond_distance
_geom_bond_site_symmetry_2
_ccdc_geom_bond_type
Co0 O2 2.143 . S
Co0 O8 2.074 . S
Co0 O11 2.093 . S
Co0 O24 2.097 . S
Co0 N41 2.151 . S
Co0 N49 2.214 . S
Co1 O2 2.160 . S
Co1 O7 2.058 . S
Co1 O17 2.057 . S
Co1 O32 2.037 . S
Co1 N36 2.145 . S
Co1 N57 2.257 1_545 S
O2 Co0 2.143 . S
O2 Co1 2.160 . S
C3 O4 1.278 . S
C3 O11 1.224 . S
O4 C3 1.278 . S
C5 O6 1.245 . S
C5 O17 1.232 . S
O6 C5 1.245 . S
O7 Co1 2.058 . S
O7 C33 1.269 . S
O8 Co0 2.074 . S
O8 C33 1.257 . S
H9 C34 0.930 . S
H10 C40 0.930 . S
O11 Co0 2.093 . S
O11 C3 1.224 . S
H12 C44 0.929 . S
H13 C46 0.930 . S
H14 C47 0.930 . S
H15 C45 0.929 . S
H16 C48 0.928 . S
O17 Co1 2.057 . S
O17 C5 1.232 . S
H18 C37 0.929 1_545 S
H19 C38 0.930 1_545 S
H20 C50 0.931 . S
H21 C42 0.931 . S
H22 C51 0.930 . S
H23 C43 0.931 . S
O24 Co0 2.097 . S
O24 C52 1.214 1_545 S
H25 C53 0.929 . S
H26 C54 0.929 . S
H27 C55 0.930 . S
H28 C56 0.929 . S
H29 C58 0.930 . S
H30 C35 0.930 . S
H31 C39 0.930 . S
O32 Co1 2.037 . S
O32 C52 1.234 1_545 S
C33 O7 1.269 . S
C33 O8 1.257 . S
C34 H9 0.930 . S
C34 C37 1.388 . S
C34 C39 1.418 . S
C35 H30 0.930 . S
C35 C38 1.403 . S
C35 C39 1.353 . S
N36 Co1 2.145 . S
N36 C37 1.397 1_545 S
N36 C38 1.334 1_545 S
C37 H18 0.929 1_565 S
C37 C34 1.388 . S
C37 N36 1.397 1_565 S
C38 H19 0.930 1_565 S
C38 C35 1.403 . S
C38 N36 1.334 1_565 S
C39 H31 0.930 . S
C39 C34 1.418 . S
C39 C35 1.353 . S
C40 H10 0.930 . S
C40 N41 1.330 . S
C40 C42 1.446 . S
N41 Co0 2.151 . S
N41 C40 1.330 . S
N41 C45 1.418 . S
C42 H21 0.931 . S
C42 C40 1.446 . S
C42 C43 1.332 . S
C43 H23 0.931 . S
C43 C42 1.332 . S
C43 C44 1.267 . S
C44 H12 0.929 . S
C44 C43 1.267 . S
C44 C45 1.251 . S
C45 H15 0.929 . S
C45 N41 1.418 . S
C45 C44 1.251 . S
C46 H13 0.930 . S
C46 C48 1.406 1_655 S
C46 C51 1.261 . S
C47 H14 0.930 . S
C47 N49 1.325 . S
C47 C50 1.357 1_455 S
C48 H16 0.928 . S
C48 C46 1.406 1_455 S
C48 N49 1.261 . S
N49 Co0 2.214 . S
N49 C47 1.325 . S
N49 C48 1.261 . S
C50 H20 0.931 . S
C50 C47 1.357 1_655 S
C50 C51 1.312 . S
C51 H22 0.930 . S
C51 C46 1.261 . S
C51 C50 1.312 . S
C52 O24 1.214 1_565 S
C52 O32 1.234 1_565 S
C53 H25 0.929 . S
C53 C56 1.391 . S
C53 C58 1.391 . S
C54 H26 0.929 . S
C54 C55 1.390 . S
C54 N57 1.391 . S
C55 H27 0.930 . S
C55 C54 1.390 . S
C55 C56 1.392 . S
C56 H28 0.929 . S
C56 C53 1.391 . S
C56 C55 1.392 . S
N57 Co1 2.257 1_565 S
N57 C54 1.391 . S
N57 C58 1.388 . S
C58 H29 0.930 . S
C58 C53 1.391 . S
C58 N57 1.388 . S
Co59 O61 2.143 . S
Co59 O67 2.074 1_455 S
Co59 O70 2.093 . S
Co59 O83 2.097 . S
Co59 N100 2.151 1_455 S
Co59 N108 2.214 1_455 S
Co60 O61 2.160 . S
Co60 O66 2.058 1_455 S
Co60 O76 2.057 . S
Co60 O91 2.037 . S
Co60 N95 2.145 . S
Co60 N116 2.257 . S
O61 Co59 2.143 . S
O61 Co60 2.160 . S
C62 O63 1.278 . S
C62 O70 1.224 . S
O63 C62 1.278 . S
C64 O65 1.245 1_455 S
C64 O76 1.232 . S
O65 C64 1.245 1_655 S
O66 Co60 2.058 1_655 S
O66 C92 1.269 . S
O67 Co59 2.074 1_655 S
O67 C92 1.257 . S
H68 C93 0.930 . S
H69 C99 0.930 . S
O70 Co59 2.093 . S
O70 C62 1.224 . S
H71 C103 0.929 . S
H72 C105 0.930 . S
H73 C106 0.930 1_455 S
H74 C104 0.929 . S
H75 C107 0.928 . S
O76 Co60 2.057 . S
O76 C64 1.232 . S
H77 C96 0.929 . S
H78 C97 0.929 . S
H79 C109 0.931 . S
H80 C101 0.929 . S
H81 C110 0.930 . S
H82 C102 0.931 . S
O83 Co59 2.097 . S
O83 C111 1.214 . S
H84 C112 0.929 . S
H85 C113 0.929 . S
H86 C114 0.930 . S
H87 C115 0.929 . S
H88 C117 0.930 . S
H89 C94 0.930 . S
H90 C98 0.930 . S
O91 Co60 2.037 . S
O91 C111 1.234 . S
C92 O66 1.269 . S
C92 O67 1.257 . S
C93 H68 0.930 . S
C93 C96 1.388 . S
C93 C98 1.418 . S
C94 H89 0.930 . S
C94 C97 1.404 . S
C94 C98 1.353 . S
N95 Co60 2.145 . S
N95 C96 1.397 . S
N95 C97 1.334 . S
C96 H77 0.929 . S
C96 C93 1.388 . S
C96 N95 1.397 . S
C97 H78 0.929 . S
C97 C94 1.404 . S
C97 N95 1.334 . S
C98 H90 0.930 . S
C98 C93 1.418 . S
C98 C94 1.353 . S
C99 H69 0.930 . S
C99 N100 1.330 . S
C99 C101 1.446 . S
N100 Co59 2.151 1_655 S
N100 C99 1.330 . S
N100 C104 1.418 . S
C101 H80 0.929 . S
C101 C99 1.446 . S
C101 C102 1.332 . S
C102 H82 0.931 . S
C102 C101 1.332 . S
C102 C103 1.267 . S
C103 H71 0.929 . S
C103 C102 1.267 . S
C103 C104 1.251 . S
C104 H74 0.929 . S
C104 N100 1.418 . S
C104 C103 1.251 . S
C105 H72 0.930 . S
C105 C107 1.406 1_565 S
C105 C110 1.261 . S
C106 H73 0.930 1_655 S
C106 N108 1.325 . S
C106 C109 1.357 1_545 S
C107 H75 0.928 . S
C107 C105 1.406 1_545 S
C107 N108 1.261 . S
N108 Co59 2.214 1_655 S
N108 C106 1.325 . S
N108 C107 1.261 . S
C109 H79 0.931 . S
C109 C106 1.357 1_565 S
C109 C110 1.312 . S
C110 H81 0.930 . S
C110 C105 1.261 . S
C110 C109 1.312 . S
C111 O83 1.214 . S
C111 O91 1.234 . S
C112 H84 0.929 . S
C112 C115 1.391 . S
C112 C117 1.391 . S
C113 H85 0.929 . S
C113 C114 1.390 . S
C113 N116 1.391 . S
C114 H86 0.930 . S
C114 C113 1.390 . S
C114 C115 1.392 . S
C115 H87 0.929 . S
C115 C112 1.391 . S
C115 C114 1.392 . S
N116 Co60 2.257 . S
N116 C113 1.391 . S
N116 C117 1.388 . S
C117 H88 0.930 . S
C117 C112 1.391 . S
C117 N116 1.388 . S
Co118 O120 2.143 . S
Co118 O126 2.074 1_545 S
Co118 O129 2.093 . S
Co118 O142 2.097 . S
Co118 N159 2.151 1_545 S
Co118 N167 2.214 1_645 S
Co119 O120 2.160 . S
Co119 O125 2.058 1_545 S
Co119 O135 2.057 . S
Co119 O150 2.037 . S
Co119 N154 2.145 . S
Co119 N175 2.257 . S
O120 Co118 2.143 . S
O120 Co119 2.160 . S
C121 O122 1.278 . S
C121 O129 1.224 . S
O122 C121 1.278 . S
C123 O124 1.245 1_545 S
C123 O135 1.232 . S
O124 C123 1.245 1_565 S
O125 Co119 2.058 1_565 S
O125 C151 1.269 . S
O126 Co118 2.074 1_565 S
O126 C151 1.257 . S
H127 C152 0.930 . S
H128 C158 0.930 . S
O129 Co118 2.093 . S
O129 C121 1.224 . S
H130 C162 0.929 . S
H131 C164 0.930 . S
H132 C165 0.930 1_545 S
H133 C163 0.929 . S
H134 C166 0.928 . S
O135 Co119 2.057 . S
O135 C123 1.232 . S
H136 C155 0.929 . S
H137 C156 0.929 . S
H138 C168 0.931 . S
H139 C160 0.931 . S
H140 C169 0.930 . S
H141 C161 0.931 . S
O142 Co118 2.097 . S
O142 C170 1.214 . S
H143 C171 0.929 . S
H144 C172 0.929 . S
H145 C173 0.930 . S
H146 C174 0.929 . S
H147 C176 0.930 . S
H148 C153 0.930 . S
H149 C157 0.930 . S
O150 Co119 2.037 . S
O150 C170 1.234 . S
C151 O125 1.269 . S
C151 O126 1.257 . S
C152 H127 0.930 . S
C152 C155 1.388 . S
C152 C157 1.418 . S
C153 H148 0.930 . S
C153 C156 1.404 . S
C153 C157 1.353 . S
N154 Co119 2.145 . S
N154 C155 1.397 . S
N154 C156 1.334 . S
C155 H136 0.929 . S
C155 C152 1.388 . S
C155 N154 1.397 . S
C156 H137 0.929 . S
C156 C153 1.404 . S
C156 N154 1.334 . S
C157 H149 0.930 . S
C157 C152 1.418 . S
C157 C153 1.353 . S
C158 H128 0.930 . S
C158 N159 1.330 . S
C158 C160 1.446 . S
N159 Co118 2.151 1_565 S
N159 C158 1.330 . S
N159 C163 1.418 . S
C160 H139 0.931 . S
C160 C158 1.446 . S
C160 C161 1.332 . S
C161 H141 0.931 . S
C161 C160 1.332 . S
C161 C162 1.267 . S
C162 H130 0.929 . S
C162 C161 1.267 . S
C162 C163 1.251 . S
C163 H133 0.929 . S
C163 N159 1.418 . S
C163 C162 1.251 . S
C164 H131 0.930 . S
C164 C166 1.406 . S
C164 C169 1.261 . S
C165 H132 0.930 1_565 S
C165 N167 1.325 . S
C165 C168 1.357 . S
C166 H134 0.928 . S
C166 C164 1.406 . S
C166 N167 1.261 . S
N167 Co118 2.214 1_465 S
N167 C165 1.325 . S
N167 C166 1.261 . S
C168 H138 0.931 . S
C168 C165 1.357 . S
C168 C169 1.312 . S
C169 H140 0.930 . S
C169 C164 1.261 . S
C169 C168 1.312 . S
C170 O142 1.214 . S
C170 O150 1.234 . S
C171 H143 0.929 . S
C171 C174 1.391 . S
C171 C176 1.391 . S
C172 H144 0.929 . S
C172 C173 1.390 . S
C172 N175 1.391 . S
C173 H145 0.930 . S
C173 C172 1.390 . S
C173 C174 1.392 . S
C174 H146 0.929 . S
C174 C171 1.391 . S
C174 C173 1.392 . S
N175 Co119 2.257 . S
N175 C172 1.391 . S
N175 C176 1.388 . S
C176 H147 0.930 . S
C176 C171 1.391 . S
C176 N175 1.388 . S
Co177 O179 2.143 . S
Co177 O185 2.074 . S
Co177 O188 2.093 . S
Co177 O201 2.097 . S
Co177 N218 2.151 . S
Co177 N226 2.214 1_565 S
Co178 O179 2.160 . S
Co178 O184 2.058 . S
Co178 O194 2.057 . S
Co178 O209 2.037 . S
Co178 N213 2.145 . S
Co178 N234 2.257 1_455 S
O179 Co177 2.143 . S
O179 Co178 2.160 . S
C180 O181 1.278 . S
C180 O188 1.224 . S
O181 C180 1.278 . S
C182 O183 1.245 . S
C182 O194 1.232 . S
O183 C182 1.245 . S
O184 Co178 2.058 . S
O184 C210 1.269 . S
O185 Co177 2.074 . S
O185 C210 1.257 . S
H186 C211 0.930 . S
H187 C217 0.930 . S
O188 Co177 2.093 . S
O188 C180 1.224 . S
H189 C221 0.929 . S
H190 C223 0.930 . S
H191 C224 0.930 . S
H192 C222 0.929 . S
H193 C225 0.928 . S
O194 Co178 2.057 . S
O194 C182 1.232 . S
H195 C214 0.929 1_455 S
H196 C215 0.929 . S
H197 C227 0.931 . S
H198 C219 0.929 . S
H199 C228 0.930 . S
H200 C220 0.931 . S
O201 Co177 2.097 . S
O201 C229 1.214 1_455 S
H202 C230 0.929 . S
H203 C231 0.929 . S
H204 C232 0.930 . S
H205 C233 0.929 . S
H206 C235 0.930 . S
H207 C212 0.930 . S
H208 C216 0.930 . S
O209 Co178 2.037 . S
O209 C229 1.234 1_455 S
C210 O184 1.269 . S
C210 O185 1.257 . S
C211 H186 0.930 . S
C211 C214 1.388 . S
C211 C216 1.418 . S
C212 H207 0.930 . S
C212 C215 1.404 1_655 S
C212 C216 1.353 . S
N213 Co178 2.145 . S
N213 C214 1.397 1_455 S
N213 C215 1.334 . S
C214 H195 0.929 1_655 S
C214 C211 1.388 . S
C214 N213 1.397 1_655 S
C215 H196 0.929 . S
C215 C212 1.404 1_455 S
C215 N213 1.334 . S
C216 H208 0.930 . S
C216 C211 1.418 . S
C216 C212 1.353 . S
C217 H187 0.930 . S
C217 N218 1.330 . S
C217 C219 1.446 . S
N218 Co177 2.151 . S
N218 C217 1.330 . S
N218 C222 1.418 . S
C219 H198 0.929 . S
C219 C217 1.446 . S
C219 C220 1.332 . S
C220 H200 0.931 . S
C220 C219 1.332 . S
C220 C221 1.267 . S
C221 H189 0.929 . S
C221 C220 1.267 . S
C221 C222 1.251 . S
C222 H192 0.929 . S
C222 N218 1.418 . S
C222 C221 1.251 . S
C223 H190 0.930 . S
C223 C225 1.406 . S
C223 C228 1.261 . S
C224 H191 0.930 . S
C224 N226 1.325 . S
C224 C227 1.357 . S
C225 H193 0.928 . S
C225 C223 1.406 . S
C225 N226 1.261 . S
N226 Co177 2.214 1_545 S
N226 C224 1.325 . S
N226 C225 1.261 . S
C227 H197 0.931 . S
C227 C224 1.357 . S
C227 C228 1.312 . S
C228 H199 0.930 . S
C228 C223 1.261 . S
C228 C227 1.312 . S
C229 O201 1.214 1_655 S
C229 O209 1.234 1_655 S
C230 H202 0.929 . S
C230 C233 1.391 . S
C230 C235 1.391 . S
C231 H203 0.929 . S
C231 C232 1.390 . S
C231 N234 1.391 . S
C232 H204 0.930 . S
C232 C231 1.390 . S
C232 C233 1.392 . S
C233 H205 0.929 . S
C233 C230 1.391 . S
C233 C232 1.392 . S
N234 Co178 2.257 1_655 S
N234 C231 1.391 . S
N234 C235 1.388 . S
C235 H206 0.930 . S
C235 C230 1.391 . S
C235 N234 1.388 . S
Co236 O238 2.143 . S
Co236 O244 2.074 1_545 S
Co236 O247 2.093 . S
Co236 O260 2.097 . S
Co236 N277 2.151 1_545 S
Co236 N285 2.214 1_545 S
Co237 O238 2.160 . S
Co237 O243 2.058 1_545 S
Co237 O253 2.057 . S
Co237 O268 2.037 . S
Co237 N272 2.145 . S
Co237 N293 2.257 . S
O238 Co236 2.143 . S
O238 Co237 2.160 . S
C239 O240 1.278 . S
C239 O247 1.224 . S
O240 C239 1.278 . S
C241 O242 1.245 1_545 S
C241 O253 1.232 . S
O242 C241 1.245 1_565 S
O243 Co237 2.058 1_565 S
O243 C269 1.269 . S
O244 Co236 2.074 1_565 S
O244 C269 1.257 . S
H245 C270 0.930 . S
H246 C276 0.930 . S
O247 Co236 2.093 . S
O247 C239 1.224 . S
H248 C280 0.929 . S
H249 C282 0.930 . S
H250 C283 0.930 1_545 S
H251 C281 0.929 . S
H252 C284 0.928 . S
O253 Co237 2.057 . S
O253 C241 1.232 . S
H254 C273 0.929 . S
H255 C274 0.929 . S
H256 C286 0.931 . S
H257 C278 0.931 . S
H258 C287 0.930 . S
H259 C279 0.931 . S
O260 Co236 2.097 . S
O260 C288 1.214 . S
H261 C289 0.929 . S
H262 C290 0.929 . S
H263 C291 0.930 . S
H264 C292 0.929 . S
H265 C294 0.930 . S
H266 C271 0.930 . S
H267 C275 0.930 . S
O268 Co237 2.037 . S
O268 C288 1.234 . S
C269 O243 1.269 . S
C269 O244 1.257 . S
C270 H245 0.930 . S
C270 C273 1.388 . S
C270 C275 1.418 . S
C271 H266 0.930 . S
C271 C274 1.404 . S
C271 C275 1.353 . S
N272 Co237 2.145 . S
N272 C273 1.397 . S
N272 C274 1.334 . S
C273 H254 0.929 . S
C273 C270 1.388 . S
C273 N272 1.397 . S
C274 H255 0.929 . S
C274 C271 1.404 . S
C274 N272 1.334 . S
C275 H267 0.930 . S
C275 C270 1.418 . S
C275 C271 1.353 . S
C276 H246 0.930 . S
C276 N277 1.330 . S
C276 C278 1.446 . S
N277 Co236 2.151 1_565 S
N277 C276 1.330 . S
N277 C281 1.418 . S
C278 H257 0.931 . S
C278 C276 1.446 . S
C278 C279 1.332 . S
C279 H259 0.931 . S
C279 C278 1.332 . S
C279 C280 1.267 . S
C280 H248 0.929 . S
C280 C279 1.267 . S
C280 C281 1.251 . S
C281 H251 0.929 . S
C281 N277 1.418 . S
C281 C280 1.251 . S
C282 H249 0.930 . S
C282 C284 1.406 1_655 S
C282 C287 1.261 . S
C283 H250 0.930 1_565 S
C283 N285 1.325 . S
C283 C286 1.357 1_455 S
C284 H252 0.928 . S
C284 C282 1.406 1_455 S
C284 N285 1.261 . S
N285 Co236 2.214 1_565 S
N285 C283 1.325 . S
N285 C284 1.261 . S
C286 H256 0.931 . S
C286 C283 1.357 1_655 S
C286 C287 1.312 . S
C287 H258 0.930 . S
C287 C282 1.261 . S
C287 C286 1.312 . S
C288 O260 1.214 . S
C288 O268 1.234 . S
C289 H261 0.929 . S
C289 C292 1.391 . S
C289 C294 1.391 . S
C290 H262 0.929 . S
C290 C291 1.390 . S
C290 N293 1.391 . S
C291 H263 0.930 . S
C291 C290 1.390 . S
C291 C292 1.392 . S
C292 H264 0.929 . S
C292 C289 1.391 . S
C292 C291 1.392 . S
N293 Co237 2.257 . S
N293 C290 1.391 . S
N293 C294 1.388 . S
C294 H265 0.930 . S
C294 C289 1.391 . S
C294 N293 1.388 . S
Co295 O297 2.143 . S
Co295 O303 2.074 . S
Co295 O306 2.093 . S
Co295 O319 2.097 . S
Co295 N336 2.151 . S
Co295 N344 2.214 . S
Co296 O297 2.160 . S
Co296 O302 2.058 . S
Co296 O312 2.057 . S
Co296 O327 2.037 . S
Co296 N331 2.145 . S
Co296 N352 2.257 1_455 S
O297 Co295 2.143 . S
O297 Co296 2.160 . S
C298 O299 1.278 . S
C298 O306 1.224 . S
O299 C298 1.278 . S
C300 O301 1.245 . S
C300 O312 1.232 . S
O301 C300 1.245 . S
O302 Co296 2.058 . S
O302 C328 1.269 . S
O303 Co295 2.074 . S
O303 C328 1.257 . S
H304 C329 0.930 . S
H305 C335 0.930 . S
O306 Co295 2.093 . S
O306 C298 1.224 . S
H307 C339 0.929 . S
H308 C341 0.930 . S
H309 C342 0.930 . S
H310 C340 0.929 . S
H311 C343 0.928 . S
O312 Co296 2.057 . S
O312 C300 1.232 . S
H313 C332 0.929 1_455 S
H314 C333 0.930 1_455 S
H315 C345 0.931 . S
H316 C337 0.929 . S
H317 C346 0.930 . S
H318 C338 0.931 . S
O319 Co295 2.097 . S
O319 C347 1.214 1_455 S
H320 C348 0.929 . S
H321 C349 0.929 . S
H322 C350 0.930 . S
H323 C351 0.929 . S
H324 C353 0.930 . S
H325 C330 0.930 . S
H326 C334 0.930 . S
O327 Co296 2.037 . S
O327 C347 1.234 1_455 S
C328 O302 1.269 . S
C328 O303 1.257 . S
C329 H304 0.930 . S
C329 C332 1.388 . S
C329 C334 1.418 . S
C330 H325 0.930 . S
C330 C333 1.403 . S
C330 C334 1.353 . S
N331 Co296 2.145 . S
N331 C332 1.397 1_455 S
N331 C333 1.334 1_455 S
C332 H313 0.929 1_655 S
C332 C329 1.388 . S
C332 N331 1.397 1_655 S
C333 H314 0.930 1_655 S
C333 C330 1.403 . S
C333 N331 1.334 1_655 S
C334 H326 0.930 . S
C334 C329 1.418 . S
C334 C330 1.353 . S
C335 H305 0.930 . S
C335 N336 1.330 . S
C335 C337 1.446 . S
N336 Co295 2.151 . S
N336 C335 1.330 . S
N336 C340 1.418 . S
C337 H316 0.929 . S
C337 C335 1.446 . S
C337 C338 1.332 . S
C338 H318 0.931 . S
C338 C337 1.332 . S
C338 C339 1.267 . S
C339 H307 0.929 . S
C339 C338 1.267 . S
C339 C340 1.251 . S
C340 H310 0.929 . S
C340 N336 1.418 . S
C340 C339 1.251 . S
C341 H308 0.930 . S
C341 C343 1.406 1_565 S
C341 C346 1.261 . S
C342 H309 0.930 . S
C342 N344 1.325 . S
C342 C345 1.357 1_545 S
C343 H311 0.928 . S
C343 C341 1.406 1_545 S
C343 N344 1.261 . S
N344 Co295 2.214 . S
N344 C342 1.325 . S
N344 C343 1.261 . S
C345 H315 0.931 . S
C345 C342 1.357 1_565 S
C345 C346 1.312 . S
C346 H317 0.930 . S
C346 C341 1.261 . S
C346 C345 1.312 . S
C347 O319 1.214 1_655 S
C347 O327 1.234 1_655 S
C348 H320 0.929 . S
C348 C351 1.391 . S
C348 C353 1.391 . S
C349 H321 0.929 . S
C349 C350 1.390 . S
C349 N352 1.391 . S
C350 H322 0.930 . S
C350 C349 1.390 . S
C350 C351 1.392 . S
C351 H323 0.929 . S
C351 C348 1.391 . S
C351 C350 1.392 . S
N352 Co296 2.257 1_655 S
N352 C349 1.391 . S
N352 C353 1.388 . S
C353 H324 0.930 . S
C353 C348 1.391 . S
C353 N352 1.388 . S
Co354 O356 2.143 . S
Co354 O362 2.074 . S
Co354 O365 2.093 . S
Co354 O378 2.097 . S
Co354 N395 2.151 . S
Co354 N403 2.214 1_655 S
Co355 O356 2.160 . S
Co355 O361 2.058 . S
Co355 O371 2.057 . S
Co355 O386 2.037 . S
Co355 N390 2.145 . S
Co355 N411 2.257 1_545 S
O356 Co354 2.143 . S
O356 Co355 2.160 . S
C357 O358 1.278 . S
C357 O365 1.224 . S
O358 C357 1.278 . S
C359 O360 1.245 . S
C359 O371 1.232 . S
O360 C359 1.245 . S
O361 Co355 2.058 . S
O361 C387 1.269 . S
O362 Co354 2.074 . S
O362 C387 1.257 . S
H363 C388 0.930 . S
H364 C394 0.930 . S
O365 Co354 2.093 . S
O365 C357 1.224 . S
H366 C398 0.929 . S
H367 C400 0.930 . S
H368 C401 0.930 . S
H369 C399 0.929 . S
H370 C402 0.928 . S
O371 Co355 2.057 . S
O371 C359 1.232 . S
H372 C391 0.929 1_545 S
H373 C392 0.929 . S
H374 C404 0.931 . S
H375 C396 0.931 . S
H376 C405 0.930 . S
H377 C397 0.931 . S
O378 Co354 2.097 . S
O378 C406 1.214 1_545 S
H379 C407 0.929 . S
H380 C408 0.929 . S
H381 C409 0.930 . S
H382 C410 0.929 . S
H383 C412 0.930 . S
H384 C389 0.930 . S
H385 C393 0.930 . S
O386 Co355 2.037 . S
O386 C406 1.234 1_545 S
C387 O361 1.269 . S
C387 O362 1.257 . S
C388 H363 0.930 . S
C388 C391 1.388 . S
C388 C393 1.418 . S
C389 H384 0.930 . S
C389 C392 1.404 1_565 S
C389 C393 1.353 . S
N390 Co355 2.145 . S
N390 C391 1.397 1_545 S
N390 C392 1.334 . S
C391 H372 0.929 1_565 S
C391 C388 1.388 . S
C391 N390 1.397 1_565 S
C392 H373 0.929 . S
C392 C389 1.404 1_545 S
C392 N390 1.334 . S
C393 H385 0.930 . S
C393 C388 1.418 . S
C393 C389 1.353 . S
C394 H364 0.930 . S
C394 N395 1.330 . S
C394 C396 1.446 . S
N395 Co354 2.151 . S
N395 C394 1.330 . S
N395 C399 1.418 . S
C396 H375 0.931 . S
C396 C394 1.446 . S
C396 C397 1.332 . S
C397 H377 0.931 . S
C397 C396 1.332 . S
C397 C398 1.267 . S
C398 H366 0.929 . S
C398 C397 1.267 . S
C398 C399 1.251 . S
C399 H369 0.929 . S
C399 N395 1.418 . S
C399 C398 1.251 . S
C400 H367 0.930 . S
C400 C402 1.406 . S
C400 C405 1.261 . S
C401 H368 0.930 . S
C401 N403 1.325 . S
C401 C404 1.357 . S
C402 H370 0.928 . S
C402 C400 1.406 . S
C402 N403 1.261 . S
N403 Co354 2.214 1_455 S
N403 C401 1.325 . S
N403 C402 1.261 . S
C404 H374 0.931 . S
C404 C401 1.357 . S
C404 C405 1.312 . S
C405 H376 0.930 . S
C405 C400 1.261 . S
C405 C404 1.312 . S
C406 O378 1.214 1_565 S
C406 O386 1.234 1_565 S
C407 H379 0.929 . S
C407 C410 1.391 . S
C407 C412 1.391 . S
C408 H380 0.929 . S
C408 C409 1.390 . S
C408 N411 1.391 . S
C409 H381 0.930 . S
C409 C408 1.390 . S
C409 C410 1.392 . S
C410 H382 0.929 . S
C410 C407 1.391 . S
C410 C409 1.392 . S
N411 Co355 2.257 1_565 S
N411 C408 1.391 . S
N411 C412 1.388 . S
C412 H383 0.930 . S
C412 C407 1.391 . S
C412 N411 1.388 . S
Co413 O415 2.143 . S
Co413 O421 2.074 1_455 S
Co413 O424 2.093 . S
Co413 O437 2.097 . S
Co413 N454 2.151 1_455 S
Co413 N462 2.214 1_465 S
Co414 O415 2.160 . S
Co414 O420 2.058 1_455 S
Co414 O430 2.057 . S
Co414 O445 2.037 . S
Co414 N449 2.145 . S
Co414 N470 2.257 . S
O415 Co413 2.143 . S
O415 Co414 2.160 . S
C416 O417 1.278 . S
C416 O424 1.224 . S
O417 C416 1.278 . S
C418 O419 1.245 1_455 S
C418 O430 1.232 . S
O419 C418 1.245 1_655 S
O420 Co414 2.058 1_655 S
O420 C446 1.269 . S
O421 Co413 2.074 1_655 S
O421 C446 1.257 . S
H422 C447 0.930 . S
H423 C453 0.930 . S
O424 Co413 2.093 . S
O424 C416 1.224 . S
H425 C457 0.929 . S
H426 C459 0.930 . S
H427 C460 0.930 1_455 S
H428 C458 0.929 . S
H429 C461 0.928 . S
O430 Co414 2.057 . S
O430 C418 1.232 . S
H431 C450 0.929 . S
H432 C451 0.929 . S
H433 C463 0.931 . S
H434 C455 0.929 . S
H435 C464 0.930 . S
H436 C456 0.931 . S
O437 Co413 2.097 . S
O437 C465 1.214 . S
H438 C466 0.929 . S
H439 C467 0.929 . S
H440 C468 0.930 . S
H441 C469 0.929 . S
H442 C471 0.930 . S
H443 C448 0.930 . S
H444 C452 0.930 . S
O445 Co414 2.037 . S
O445 C465 1.234 . S
C446 O420 1.269 . S
C446 O421 1.257 . S
C447 H422 0.930 . S
C447 C450 1.388 . S
C447 C452 1.418 . S
C448 H443 0.930 . S
C448 C451 1.404 . S
C448 C452 1.353 . S
N449 Co414 2.145 . S
N449 C450 1.397 . S
N449 C451 1.334 . S
C450 H431 0.929 . S
C450 C447 1.388 . S
C450 N449 1.397 . S
C451 H432 0.929 . S
C451 C448 1.404 . S
C451 N449 1.334 . S
C452 H444 0.930 . S
C452 C447 1.418 . S
C452 C448 1.353 . S
C453 H423 0.930 . S
C453 N454 1.330 . S
C453 C455 1.446 . S
N454 Co413 2.151 1_655 S
N454 C453 1.330 . S
N454 C458 1.418 . S
C455 H434 0.929 . S
C455 C453 1.446 . S
C455 C456 1.332 . S
C456 H436 0.931 . S
C456 C455 1.332 . S
C456 C457 1.267 . S
C457 H425 0.929 . S
C457 C456 1.267 . S
C457 C458 1.251 . S
C458 H428 0.929 . S
C458 N454 1.418 . S
C458 C457 1.251 . S
C459 H426 0.930 . S
C459 C461 1.406 . S
C459 C464 1.261 . S
C460 H427 0.930 1_655 S
C460 N462 1.325 . S
C460 C463 1.357 . S
C461 H429 0.928 . S
C461 C459 1.406 . S
C461 N462 1.261 . S
N462 Co413 2.214 1_645 S
N462 C460 1.325 . S
N462 C461 1.261 . S
C463 H433 0.931 . S
C463 C460 1.357 . S
C463 C464 1.312 . S
C464 H435 0.930 . S
C464 C459 1.261 . S
C464 C463 1.312 . S
C465 O437 1.214 . S
C465 O445 1.234 . S
C466 H438 0.929 . S
C466 C469 1.391 . S
C466 C471 1.391 . S
C467 H439 0.929 . S
C467 C468 1.390 . S
C467 N470 1.391 . S
C468 H440 0.930 . S
C468 C467 1.390 . S
C468 C469 1.392 . S
C469 H441 0.929 . S
C469 C466 1.391 . S
C469 C468 1.392 . S
N470 Co414 2.257 . S
N470 C467 1.391 . S
N470 C471 1.388 . S
C471 H442 0.930 . S
C471 C466 1.391 . S
C471 N470 1.388 . S
C3 C239 1.804 1_554 S
C62 C298 1.804 . S
C357 C121 1.804 1_556 S
C416 C180 1.804 . S
C5 C123 2.489 . S
C64 C182 2.489 . S
C359 C241 2.489 . S
C300 C418 2.489 . S
C328 C33 1.432 . S
C92 C387 1.433 . S
C446 C151 1.432 . S
C210 C269 1.433 . S
C406 C229 1.975 . S
C52 C465 1.975 . S
C111 C288 1.975 . S
C347 C170 1.975 . S
