# Generated by pormake.
# Topology dft, (4)-cn, num edge types: 1
# Building blocks:
#     Node 0, Type 0, BuildingBlock: CEKHIL_clean_sbu_0, # of connection points: 4
#     Node 1, Type 0, BuildingBlock: CEKHIL_clean_sbu_0, # of connection points: 4
#     Node 2, Type 0, BuildingBlock: CEKHIL_clean_sbu_0, # of connection points: 4
#     Node 3, Type 0, BuildingBlock: CEKHIL_clean_sbu_0, # of connection points: 4
#     Node 4, Type 0, BuildingBlock: CEKHIL_clean_sbu_0, # of connection points: 4
#     Node 5, Type 0, BuildingBlock: CEKHIL_clean_sbu_0, # of connection points: 4
#     Node 6, Type 0, BuildingBlock: CEKHIL_clean_sbu_0, # of connection points: 4
#     Node 7, Type 0, BuildingBlock: CEKHIL_clean_sbu_0, # of connection points: 4
#     Edge 8, Type (0, 0), None
#     Edge 9, Type (0, 0), None
#     Edge 10, Type (0, 0), None
#     Edge 11, Type (0, 0), None
#     Edge 12, Type (0, 0), None
#     Edge 13, Type (0, 0), None
#     Edge 14, Type (0, 0), None
#     Edge 15, Type (0, 0), None
#     Edge 16, Type (0, 0), None
#     Edge 17, Type (0, 0), None
#     Edge 18, Type (0, 0), None
#     Edge 19, Type (0, 0), None
#     Edge 20, Type (0, 0), None
#     Edge 21, Type (0, 0), None
#     Edge 22, Type (0, 0), None
#     Edge 23, Type (0, 0), None
# Relax obj value: 0.180
# Max RMSD: 0.169
# Mean RMSD: 0.169
data_MOF--net-dft--node1-CEKHIL_clean_sbu_0--edge1-none
_symmetry_space_group_name_H-M    P1
_symmetry_Int_Tables_number       1
_symmetry_cell_setting            triclinic
loop_
_symmetry_equiv_pos_as_xyz
'x, y, z'
_cell_length_a     14.778875
_cell_length_b     14.778875
_cell_length_c     17.855504
_cell_angle_alpha  89.999302
_cell_angle_beta   90.000698
_cell_angle_gamma 89.999998
loop_
_atom_site_label
_atom_site_type_symbol
_atom_site_fract_x
_atom_site_fract_y
_atom_site_fract_z
_atom_type_partial_charge
Co0 Co 0.40059 0.06334 0.19285 0.0
O1 O 0.519 1.01497 0.16833 0.0
O2 O 0.49365 0.14487 0.22686 0.0
C3 C 0.33164 0.9343 0.23242 0.0
O4 O 0.29679 0.13738 0.23758 0.0
Co5 Co 0.2255 1.0163 0.11317 0.0
O6 O 0.17758 0.12798 0.16272 0.0
C7 C 0.3766 0.07773 0.03195 0.0
C8 C 0.55115 0.08891 0.19808 0.0
C9 C 0.21678 0.16173 0.21927 0.0
O10 O 0.39627 0.12345 0.09131 0.0
O11 O 0.32347 1.01029 0.03592 0.0
O12 O 0.38555 0.97887 0.27734 0.0
O13 O 0.3287 0.96371 0.16508 0.0
Co14 Co 0.13579 0.40061 0.69279 0.0
O15 O 0.18415 0.51906 0.66838 0.0
O16 O 0.05414 0.49361 0.72673 0.0
C17 C 0.26482 0.33174 0.7325 0.0
O18 O 0.06172 0.29674 0.73735 0.0
Co19 Co 0.18332 0.22557 0.61308 0.0
O20 O 0.07193 0.17729 0.6628 0.0
C21 C 0.12164 0.37663 0.53183 0.0
C22 C 0.11014 0.55116 0.69805 0.0
C23 C 0.03778 0.21656 0.71915 0.0
O24 O 0.07587 0.39629 0.59117 0.0
O25 O 0.18912 0.32356 0.53581 0.0
O26 O 0.22012 0.38557 0.7774 0.0
O27 O 0.23554 0.32884 0.66513 0.0
Co28 Co 0.79866 0.13561 0.19281 0.0
O29 O 0.6802 0.18394 0.16843 0.0
O30 O 0.70569 0.05387 0.22668 0.0
C31 C 0.86742 0.26469 0.23259 0.0
O32 O 0.90258 0.06152 0.23728 0.0
Co33 Co 0.97373 0.18361 0.11314 0.0
O34 O 0.02239 0.07262 0.16319 0.0
C35 C 0.82274 0.12161 0.03183 0.0
C36 C 0.64813 0.10989 0.19804 0.0
C37 C 0.98298 0.03806 0.2193 0.0
O38 O 0.80305 0.07582 0.09115 0.0
O39 O 0.87577 0.18914 0.03583 0.0
O40 O 0.81365 0.21988 0.27748 0.0
O41 O 0.87033 0.23544 0.16522 0.0
Co42 Co 0.06352 0.79869 0.69287 0.0
O43 O 1.01518 0.68026 0.66838 0.0
O44 O 0.14514 0.70565 0.72681 0.0
C45 C 0.93443 0.86751 0.73251 0.0
O46 O 0.13758 0.90252 0.73752 0.0
Co47 Co 1.01601 0.97381 0.61323 0.0
O48 O 0.1273 0.02209 0.66311 0.0
C49 C 0.07775 0.82277 0.53195 0.0
C50 C 0.08916 0.64814 0.69807 0.0
C51 C 0.16146 0.98275 0.71942 0.0
O52 O 0.12351 0.80307 0.59129 0.0
O53 O 1.01028 0.87586 0.53594 0.0
O54 O 0.97911 0.81367 0.77743 0.0
O55 O 0.9638 0.87047 0.66517 0.0
Co56 Co 0.40061 0.13579 0.79839 0.0
O57 O 0.51906 0.18417 0.82276 0.0
O58 O 0.49361 0.05412 0.76448 0.0
C59 C 0.33171 0.26476 0.75862 0.0
O60 O 0.29673 0.06169 0.75387 0.0
Co61 Co 0.22558 0.18337 0.87811 0.0
O62 O 0.17729 0.07195 0.82843 0.0
C63 C 0.37668 0.1218 0.95934 0.0
C64 C 0.55116 0.11014 0.79312 0.0
C65 C 0.21656 0.03776 0.7721 0.0
O66 O 0.39631 0.07595 0.90004 0.0
O67 O 0.32358 0.18926 0.95536 0.0
O68 O 0.38556 0.22006 0.71374 0.0
O69 O 0.32883 0.23555 0.82601 0.0
Co70 Co 0.06334 0.40059 0.29832 0.0
O71 O 1.01495 0.519 0.32281 0.0
O72 O 0.1449 0.49365 0.26434 0.0
C73 C 0.93436 0.33162 0.2587 0.0
O74 O 0.1374 0.29679 0.25364 0.0
Co75 Co 1.01625 0.2255 0.37801 0.0
O76 O 0.12796 0.17759 0.32851 0.0
C77 C 0.07756 0.37665 0.45922 0.0
C78 C 0.08891 0.55115 0.29309 0.0
C79 C 0.16175 0.21679 0.27198 0.0
O80 O 0.12338 0.39629 0.3999 0.0
O81 O 1.01015 0.32348 0.45526 0.0
O82 O 0.97893 0.38555 0.21379 0.0
O83 O 0.9637 0.3287 0.32606 0.0
Co84 Co 0.79868 0.06352 0.7983 0.0
O85 O 0.68025 1.01516 0.82276 0.0
O86 O 0.70566 0.14516 0.76439 0.0
C87 C 0.86754 0.93449 0.75861 0.0
O88 O 0.90252 0.13761 0.7537 0.0
Co89 Co 0.9738 1.01595 0.87795 0.0
O90 O 0.02209 0.12727 0.82812 0.0
C91 C 0.82272 0.07758 0.95921 0.0
C92 C 0.64814 0.08917 0.7931 0.0
C93 C 0.98275 0.16148 0.77183 0.0
O94 O 0.80306 0.12343 0.89992 0.0
O95 O 0.87584 1.01014 0.95524 0.0
O96 O 0.81368 0.97917 0.7137 0.0
O97 O 0.87047 0.96379 0.82596 0.0
Co98 Co 0.13561 0.79866 0.29837 0.0
O99 O 0.18396 0.68019 0.32271 0.0
O100 O 0.05385 0.7057 0.26452 0.0
C101 C 0.26462 0.86744 0.25853 0.0
O102 O 0.06149 0.90258 0.25394 0.0
Co103 Co 0.18367 0.97373 0.37805 0.0
O104 O 0.07265 0.02238 0.32804 0.0
C105 C 0.12178 0.82269 0.45933 0.0
C106 C 0.10988 0.64813 0.29313 0.0
C107 C 0.03804 0.98297 0.27195 0.0
O108 O 0.07589 0.80303 0.40006 0.0
O109 O 0.18928 0.87575 0.45534 0.0
O110 O 0.21982 0.81366 0.21365 0.0
O111 O 0.23545 0.87034 0.32592 0.0
loop_
_geom_bond_atom_site_label_1
_geom_bond_atom_site_label_2
_geom_bond_distance
_geom_bond_site_symmetry_2
_ccdc_geom_bond_type
Co0 O1 2.216 1_545 S
Co0 O2 2.091 . S
Co0 O4 2.004 . S
Co0 O10 2.021 . S
Co0 O12 2.137 1_545 S
Co0 O13 2.244 1_545 S
O1 Co0 2.216 1_565 S
O1 C8 1.247 1_565 S
O2 Co0 2.091 . S
O2 C8 1.261 . S
C3 O12 1.247 . S
C3 O13 1.272 . S
O4 Co0 2.004 . S
O4 C9 1.259 . S
Co5 O6 2.061 . S
Co5 O11 2.052 . S
Co5 O13 2.135 1_545 S
O6 Co5 2.061 . S
O6 C9 1.235 . S
C7 O10 1.238 . S
C7 O11 1.241 . S
C8 O1 1.247 1_545 S
C8 O2 1.261 . S
C9 O4 1.259 . S
C9 O6 1.235 . S
O10 Co0 2.021 . S
O10 C7 1.238 . S
O11 Co5 2.052 . S
O11 C7 1.241 . S
O12 Co0 2.137 1_565 S
O12 C3 1.247 . S
O13 Co0 2.244 1_565 S
O13 C3 1.272 . S
O13 Co5 2.135 1_565 S
Co14 O15 2.216 . S
Co14 O16 2.091 . S
Co14 O18 2.002 1_455 S
Co14 O24 2.021 . S
Co14 O26 2.137 . S
Co14 O27 2.244 . S
O15 Co14 2.216 . S
O15 C22 1.247 . S
O16 Co14 2.091 . S
O16 C22 1.261 . S
C17 O26 1.247 . S
C17 O27 1.272 . S
O18 Co14 2.002 1_655 S
O18 C23 1.260 . S
Co19 O20 2.061 . S
Co19 O25 2.052 . S
Co19 O27 2.135 . S
O20 Co19 2.061 . S
O20 C23 1.235 1_455 S
C21 O24 1.238 . S
C21 O25 1.241 . S
C22 O15 1.247 . S
C22 O16 1.261 . S
C23 O18 1.260 . S
C23 O20 1.235 1_655 S
O24 Co14 2.021 . S
O24 C21 1.238 . S
O25 Co19 2.052 . S
O25 C21 1.241 . S
O26 Co14 2.137 . S
O26 C17 1.247 . S
O27 Co14 2.244 . S
O27 C17 1.272 . S
O27 Co19 2.135 . S
Co28 O29 2.216 . S
Co28 O30 2.091 . S
Co28 O32 2.002 1_545 S
Co28 O38 2.021 . S
Co28 O40 2.137 . S
Co28 O41 2.244 . S
O29 Co28 2.216 . S
O29 C36 1.247 . S
O30 Co28 2.091 . S
O30 C36 1.261 . S
C31 O40 1.247 . S
C31 O41 1.272 . S
O32 Co28 2.002 1_565 S
O32 C37 1.260 . S
Co33 O34 2.061 . S
Co33 O39 2.052 . S
Co33 O41 2.135 . S
O34 Co33 2.061 . S
O34 C37 1.235 1_545 S
C35 O38 1.238 . S
C35 O39 1.241 . S
C36 O29 1.247 . S
C36 O30 1.261 . S
C37 O32 1.260 . S
C37 O34 1.235 1_565 S
O38 Co28 2.021 . S
O38 C35 1.238 . S
O39 Co33 2.052 . S
O39 C35 1.241 . S
O40 Co28 2.137 . S
O40 C31 1.247 . S
O41 Co28 2.244 . S
O41 C31 1.272 . S
O41 Co33 2.135 . S
Co42 O43 2.216 1_455 S
Co42 O44 2.091 . S
Co42 O46 2.004 . S
Co42 O52 2.021 . S
Co42 O54 2.137 1_455 S
Co42 O55 2.244 1_455 S
O43 Co42 2.216 1_655 S
O43 C50 1.247 1_655 S
O44 Co42 2.091 . S
O44 C50 1.261 . S
C45 O54 1.247 . S
C45 O55 1.272 . S
O46 Co42 2.004 . S
O46 C51 1.259 . S
Co47 O48 2.061 . S
Co47 O53 2.052 . S
Co47 O55 2.135 1_455 S
O48 Co47 2.061 . S
O48 C51 1.235 . S
C49 O52 1.238 . S
C49 O53 1.241 . S
C50 O43 1.247 1_455 S
C50 O44 1.261 . S
C51 O46 1.259 . S
C51 O48 1.235 . S
O52 Co42 2.021 . S
O52 C49 1.238 . S
O53 Co47 2.052 . S
O53 C49 1.241 . S
O54 Co42 2.137 1_655 S
O54 C45 1.247 . S
O55 Co42 2.244 1_655 S
O55 C45 1.272 . S
O55 Co47 2.135 1_655 S
Co56 O57 2.216 . S
Co56 O58 2.091 . S
Co56 O60 2.002 1_545 S
Co56 O66 2.021 . S
Co56 O68 2.137 . S
Co56 O69 2.244 . S
O57 Co56 2.216 . S
O57 C64 1.247 . S
O58 Co56 2.091 . S
O58 C64 1.261 . S
C59 O68 1.247 . S
C59 O69 1.272 . S
O60 Co56 2.002 1_565 S
O60 C65 1.260 . S
Co61 O62 2.061 . S
Co61 O67 2.052 . S
Co61 O69 2.135 . S
O62 Co61 2.061 . S
O62 C65 1.235 1_545 S
C63 O66 1.238 . S
C63 O67 1.241 . S
C64 O57 1.247 . S
C64 O58 1.261 . S
C65 O60 1.260 . S
C65 O62 1.235 1_565 S
O66 Co56 2.021 . S
O66 C63 1.238 . S
O67 Co61 2.052 . S
O67 C63 1.241 . S
O68 Co56 2.137 . S
O68 C59 1.247 . S
O69 Co56 2.244 . S
O69 C59 1.272 . S
O69 Co61 2.135 . S
Co70 O71 2.216 1_455 S
Co70 O72 2.091 . S
Co70 O74 2.004 . S
Co70 O80 2.021 . S
Co70 O82 2.137 1_455 S
Co70 O83 2.244 1_455 S
O71 Co70 2.216 1_655 S
O71 C78 1.247 1_655 S
O72 Co70 2.091 . S
O72 C78 1.261 . S
C73 O82 1.247 . S
C73 O83 1.272 . S
O74 Co70 2.004 . S
O74 C79 1.259 . S
Co75 O76 2.061 . S
Co75 O81 2.052 . S
Co75 O83 2.135 1_455 S
O76 Co75 2.061 . S
O76 C79 1.235 . S
C77 O80 1.238 . S
C77 O81 1.241 . S
C78 O71 1.247 1_455 S
C78 O72 1.261 . S
C79 O74 1.259 . S
C79 O76 1.235 . S
O80 Co70 2.021 . S
O80 C77 1.238 . S
O81 Co75 2.052 . S
O81 C77 1.241 . S
O82 Co70 2.137 1_655 S
O82 C73 1.247 . S
O83 Co70 2.244 1_655 S
O83 C73 1.272 . S
O83 Co75 2.135 1_655 S
Co84 O85 2.216 1_545 S
Co84 O86 2.091 . S
Co84 O88 2.004 . S
Co84 O94 2.021 . S
Co84 O96 2.137 1_545 S
Co84 O97 2.244 1_545 S
O85 Co84 2.216 1_565 S
O85 C92 1.247 1_565 S
O86 Co84 2.091 . S
O86 C92 1.261 . S
C87 O96 1.247 . S
C87 O97 1.272 . S
O88 Co84 2.004 . S
O88 C93 1.259 . S
Co89 O90 2.061 . S
Co89 O95 2.052 . S
Co89 O97 2.135 1_545 S
O90 Co89 2.061 . S
O90 C93 1.235 . S
C91 O94 1.238 . S
C91 O95 1.241 . S
C92 O85 1.247 1_545 S
C92 O86 1.261 . S
C93 O88 1.259 . S
C93 O90 1.235 . S
O94 Co84 2.021 . S
O94 C91 1.238 . S
O95 Co89 2.052 . S
O95 C91 1.241 . S
O96 Co84 2.137 1_565 S
O96 C87 1.247 . S
O97 Co84 2.244 1_565 S
O97 C87 1.272 . S
O97 Co89 2.135 1_565 S
Co98 O99 2.216 . S
Co98 O100 2.091 . S
Co98 O102 2.002 1_455 S
Co98 O108 2.021 . S
Co98 O110 2.137 . S
Co98 O111 2.244 . S
O99 Co98 2.216 . S
O99 C106 1.247 . S
O100 Co98 2.091 . S
O100 C106 1.261 . S
C101 O110 1.247 . S
C101 O111 1.272 . S
O102 Co98 2.002 1_655 S
O102 C107 1.260 . S
Co103 O104 2.061 . S
Co103 O109 2.052 . S
Co103 O111 2.135 . S
O104 Co103 2.061 . S
O104 C107 1.235 1_455 S
C105 O108 1.238 . S
C105 O109 1.241 . S
C106 O99 1.247 . S
C106 O100 1.261 . S
C107 O102 1.260 . S
C107 O104 1.235 1_655 S
O108 Co98 2.021 . S
O108 C105 1.238 . S
O109 Co103 2.052 . S
O109 C105 1.241 . S
O110 Co98 2.137 . S
O110 C101 1.247 . S
O111 Co98 2.244 . S
O111 C101 1.272 . S
O111 Co103 2.135 . S
C7 C63 1.464 1_554 S
C21 C77 1.464 . S
C91 C35 1.464 1_556 S
C105 C49 1.464 . S
C8 C36 1.827 . S
C22 C50 1.827 . S
C92 C64 1.827 . S
C78 C106 1.827 . S
C79 C9 1.462 . S
C23 C93 1.462 . S
C107 C37 1.462 . S
C51 C65 1.462 . S
C87 C45 1.635 . S
C3 C101 1.635 . S
C17 C59 1.635 . S
C73 C31 1.635 . S
