# Generated by pormake.
# Topology dft, (4)-cn, num edge types: 1
# Building blocks:
#     Node 0, Type 0, BuildingBlock: GALJAG_clean_sbu_0, # of connection points: 4
#     Node 1, Type 0, BuildingBlock: GALJAG_clean_sbu_0, # of connection points: 4
#     Node 2, Type 0, BuildingBlock: GALJAG_clean_sbu_0, # of connection points: 4
#     Node 3, Type 0, BuildingBlock: GALJAG_clean_sbu_0, # of connection points: 4
#     Node 4, Type 0, BuildingBlock: GALJAG_clean_sbu_0, # of connection points: 4
#     Node 5, Type 0, BuildingBlock: GALJAG_clean_sbu_0, # of connection points: 4
#     Node 6, Type 0, BuildingBlock: GALJAG_clean_sbu_0, # of connection points: 4
#     Node 7, Type 0, BuildingBlock: GALJAG_clean_sbu_0, # of connection points: 4
#     Edge 8, Type (0, 0), BuildingBlock: OJICUG_clean_linker_0, # of connection points: 2
#     Edge 9, Type (0, 0), BuildingBlock: OJICUG_clean_linker_0, # of connection points: 2
#     Edge 10, Type (0, 0), BuildingBlock: OJICUG_clean_linker_0, # of connection points: 2
#     Edge 11, Type (0, 0), BuildingBlock: OJICUG_clean_linker_0, # of connection points: 2
#     Edge 12, Type (0, 0), BuildingBlock: OJICUG_clean_linker_0, # of connection points: 2
#     Edge 13, Type (0, 0), BuildingBlock: OJICUG_clean_linker_0, # of connection points: 2
#     Edge 14, Type (0, 0), BuildingBlock: OJICUG_clean_linker_0, # of connection points: 2
#     Edge 15, Type (0, 0), BuildingBlock: OJICUG_clean_linker_0, # of connection points: 2
#     Edge 16, Type (0, 0), BuildingBlock: OJICUG_clean_linker_0, # of connection points: 2
#     Edge 17, Type (0, 0), BuildingBlock: OJICUG_clean_linker_0, # of connection points: 2
#     Edge 18, Type (0, 0), BuildingBlock: OJICUG_clean_linker_0, # of connection points: 2
#     Edge 19, Type (0, 0), BuildingBlock: OJICUG_clean_linker_0, # of connection points: 2
#     Edge 20, Type (0, 0), BuildingBlock: OJICUG_clean_linker_0, # of connection points: 2
#     Edge 21, Type (0, 0), BuildingBlock: OJICUG_clean_linker_0, # of connection points: 2
#     Edge 22, Type (0, 0), BuildingBlock: OJICUG_clean_linker_0, # of connection points: 2
#     Edge 23, Type (0, 0), BuildingBlock: OJICUG_clean_linker_0, # of connection points: 2
# Relax obj value: 0.096
# Max RMSD: 0.146
# Mean RMSD: 0.146
data_MOF--net-dft--node1-GALJAG_clean_sbu_0--edge1-OJICUG_clean_linker_0
_symmetry_space_group_name_H-M    P1
_symmetry_Int_Tables_number       1
_symmetry_cell_setting            triclinic
loop_
_symmetry_equiv_pos_as_xyz
'x, y, z'
_cell_length_a     24.713223
_cell_length_b     24.624988
_cell_length_c     32.932717
_cell_angle_alpha  90.030175
_cell_angle_beta   89.860941
_cell_angle_gamma 89.800807
loop_
_atom_site_label
_atom_site_type_symbol
_atom_site_fract_x
_atom_site_fract_y
_atom_site_fract_z
_atom_type_partial_charge
In0 In 0.30866 0.04448 0.16635 0.0
O1 O 0.3908 0.08325 0.17917 0.0
O2 O 0.3888 -0.00148 0.16761 0.0
C3 C 0.24084 0.11873 0.19918 0.0
C4 C 0.29783 0.0519 0.08474 0.0
C5 C 0.27281 0.96058 0.21095 0.0
O6 O 0.29157 0.12202 0.20282 0.0
O7 O 0.22481 0.07961 0.17768 0.0
O8 O 0.27211 0.96037 0.1726 0.0
O9 O 0.29332 0.00242 0.22677 0.0
C10 C 0.41718 0.03959 0.17541 0.0
O11 O 0.2845 0.01027 0.10454 0.0
O12 O 0.31566 0.09031 0.10615 0.0
In13 In 0.03724 0.313 0.66904 0.0
O14 O 0.02493 0.39378 0.70345 0.0
O15 O 0.04679 0.39682 0.64127 0.0
C16 C 0.96515 0.24632 0.70586 0.0
C17 C 0.02606 0.29188 0.58928 0.0
C18 C 0.13175 0.28464 0.70379 0.0
O19 O 0.953 0.29441 0.6961 0.0
O20 O 0.01237 0.23212 0.69616 0.0
O21 O 0.12034 0.27316 0.66749 0.0
O22 O 0.0964 0.31265 0.72203 0.0
C23 C 0.03551 0.42292 0.673 0.0
O24 O 0.07088 0.28874 0.60745 0.0
O25 O 0.98624 0.30437 0.61166 0.0
In26 In 0.75912 0.02784 0.16721 0.0
O27 O 0.67672 0.98665 0.17341 0.0
O28 O 0.67876 0.07276 0.17323 0.0
C29 C 0.82063 0.94909 0.20165 0.0
C30 C 0.76568 0.02516 0.08542 0.0
C31 C 0.80279 0.11376 0.20554 0.0
O32 O 0.77588 0.96418 0.21632 0.0
O33 O 0.83384 0.97288 0.16924 0.0
O34 O 0.81282 0.10274 0.16887 0.0
O35 O 0.77058 0.08151 0.22285 0.0
C36 C 0.65031 0.0305 0.17517 0.0
O37 O 0.75441 0.98372 0.10631 0.0
O38 O 0.77396 0.06769 0.1058 0.0
In39 In 0.0403 0.76651 0.66564 0.0
O40 O 0.01093 0.79557 0.60413 0.0
O41 O 0.09097 0.76384 0.60739 0.0
C42 C 0.94774 0.79676 0.70276 0.0
C43 C 0.03679 0.65704 0.67157 0.0
C44 C 0.11309 0.834 0.70047 0.0
O45 O 0.9568 0.80562 0.66565 0.0
O46 O 0.9845 0.77054 0.72075 0.0
O47 O 0.12399 0.78473 0.69344 0.0
O48 O 0.06693 0.84889 0.68882 0.0
C49 C 0.05383 0.78329 0.58538 0.0
O50 O 0.05863 0.68604 0.6985 0.0
O51 O 0.0168 0.68316 0.64237 0.0
In52 In 0.31309 0.05528 0.82755 0.0
O53 O 0.28756 0.01616 0.88783 0.0
O54 O 0.32276 0.0944 0.88992 0.0
C55 C 0.27467 0.14397 0.7894 0.0
C56 C 0.421 0.04578 0.81726 0.0
C57 C 0.25091 0.98057 0.78978 0.0
O58 O 0.26633 0.13489 0.8266 0.0
O59 O 0.30327 0.10866 0.77155 0.0
O60 O 0.3019 0.97758 0.79001 0.0
O61 O 0.23158 0.02026 0.80927 0.0
C62 C 0.30265 0.05548 0.90951 0.0
O63 O 0.39135 0.00585 0.82598 0.0
O64 O 0.39617 0.09023 0.8133 0.0
In65 In 0.01697 0.30883 0.33294 0.0
O66 O 0.06428 0.38795 0.33167 0.0
O67 O 0.97979 0.39254 0.32078 0.0
C68 C 0.09307 0.24955 0.29374 0.0
C69 C 0.01729 0.29437 0.41448 0.0
C70 C 0.93203 0.26665 0.29315 0.0
O71 O 0.09663 0.3004 0.29751 0.0
O72 O 0.05247 0.22872 0.31084 0.0
O73 O 0.93956 0.2596 0.33067 0.0
O74 O 0.96614 0.29714 0.27599 0.0
C75 C 0.02391 0.4177 0.32426 0.0
O76 O 0.05701 0.28174 0.39228 0.0
O77 O 0.97759 0.31409 0.39562 0.0
In78 In 0.76138 0.02327 0.82798 0.0
O79 O 0.75431 0.98243 0.88986 0.0
O80 O 0.77734 0.06521 0.88895 0.0
C81 C 0.80334 0.93633 0.78939 0.0
C82 C 0.6535 0.03043 0.81701 0.0
C83 C 0.82467 0.09913 0.79252 0.0
O84 O 0.81184 0.94604 0.82644 0.0
O85 O 0.77281 0.97011 0.77183 0.0
O86 O 0.77393 0.09868 0.78833 0.0
O87 O 0.84314 0.06218 0.81516 0.0
C88 C 0.76705 0.02382 0.91009 0.0
O89 O 0.67859 0.98578 0.8166 0.0
O90 O 0.6829 0.07154 0.82236 0.0
In91 In 0.05021 0.76041 0.32935 0.0
O92 O 0.0187 0.79511 0.38921 0.0
O93 O 0.09099 0.74831 0.39087 0.0
C94 C 0.13534 0.81407 0.29783 0.0
C95 C 0.04065 0.65129 0.32211 0.0
C96 C 0.97057 0.80985 0.2867 0.0
O97 O 0.11078 0.82999 0.32931 0.0
O98 O 0.11749 0.77065 0.28266 0.0
O99 O 0.01331 0.792 0.27044 0.0
O100 O 0.96723 0.80162 0.32445 0.0
C101 C 0.05633 0.77542 0.41051 0.0
O102 O 0.0002 0.68238 0.32473 0.0
O103 O 0.08557 0.6752 0.32268 0.0
C104 C 0.27616 0.00987 0.01753 0.0
C105 C 0.29572 0.05421 0.03994 0.0
H106 H 0.26285 0.97554 0.95859 0.0
C107 C 0.31558 0.09975 0.01911 0.0
H108 H 0.26054 0.97423 0.03277 0.0
C109 C 0.31702 0.10043 0.97669 0.0
C110 C 0.29857 0.05561 0.95427 0.0
H111 H 0.33096 0.13451 0.03556 0.0
H112 H 0.33334 0.13579 0.96149 0.0
C113 C 0.27752 0.01058 0.97508 0.0
C114 C 0.06732 0.27155 0.5216 0.0
C115 C 0.02185 0.28674 0.54472 0.0
H116 H 0.10141 0.26171 0.46219 0.0
C117 C 0.97379 0.30101 0.52466 0.0
H118 H 0.10491 0.26023 0.53624 0.0
C119 C 0.97192 0.30222 0.48224 0.0
C120 C 0.01799 0.28887 0.45914 0.0
H121 H 0.93814 0.31296 0.54169 0.0
H122 H 0.93474 0.31477 0.46758 0.0
C123 C 0.06536 0.27245 0.4792 0.0
C124 C 0.75607 0.97642 0.97669 0.0
C125 C 0.76851 0.02386 0.95492 0.0
H126 H 0.74556 0.93961 0.03507 0.0
C127 C 0.78126 0.07139 0.97639 0.0
H128 H 0.74612 0.93914 0.96096 0.0
C129 C 0.78089 0.07165 0.01884 0.0
C130 C 0.76782 0.02437 0.0406 0.0
H131 H 0.79106 0.10853 0.96041 0.0
H132 H 0.79043 0.10902 0.03459 0.0
C133 C 0.75576 0.97666 0.01912 0.0
C134 C 0.01601 0.80798 0.47581 0.0
C135 C 0.05837 0.78171 0.45509 0.0
H136 H 0.98163 0.82937 0.53334 0.0
C137 C 0.10149 0.75963 0.4775 0.0
H138 H 0.98236 0.82559 0.45935 0.0
C139 C 0.10127 0.76213 0.51994 0.0
C140 C 0.05777 0.78648 0.54068 0.0
H141 H 0.13483 0.73936 0.46231 0.0
H142 H 0.13425 0.74342 0.5365 0.0
C143 C 0.01564 0.81021 0.51819 0.0
C144 C 0.5072 0.08474 0.18178 0.0
C145 C 0.47673 0.03701 0.17796 0.0
H146 H 0.58617 0.12006 0.18385 0.0
C147 C 0.50375 0.98686 0.17495 0.0
H148 H 0.48744 0.12396 0.18416 0.0
C149 C 0.56024 0.98459 0.17493 0.0
C150 C 0.59072 0.03245 0.17771 0.0
H151 H 0.48127 0.94938 0.17204 0.0
H152 H 0.58001 0.94545 0.17197 0.0
C153 C 0.56369 0.0825 0.18155 0.0
C154 C 0.04097 0.51189 0.71003 0.0
C155 C 0.03461 0.48278 0.67366 0.0
H156 H 0.04781 0.59055 0.73786 0.0
C157 C 0.02852 0.51134 0.63708 0.0
H158 H 0.04595 0.49071 0.7386 0.0
C159 C 0.02853 0.56792 0.63676 0.0
C160 C 0.03587 0.5972 0.67289 0.0
H161 H 0.0234 0.4899 0.60861 0.0
H162 H 0.02366 0.58876 0.60802 0.0
C163 C 0.04228 0.5688 0.70958 0.0
C164 C 0.56847 0.08487 0.81114 0.0
C165 C 0.59412 0.03404 0.81385 0.0
H166 H 0.49337 0.12834 0.80966 0.0
C167 C 0.56241 0.98685 0.81548 0.0
H168 H 0.59195 0.12189 0.80971 0.0
C169 C 0.506 0.99055 0.81578 0.0
C170 C 0.48037 0.04148 0.81407 0.0
H171 H 0.58115 0.94712 0.81758 0.0
H172 H 0.48251 0.95361 0.81798 0.0
C173 C 0.51208 0.08854 0.81106 0.0
C174 C 0.98121 0.50979 0.31872 0.0
C175 C 0.02796 0.47737 0.32141 0.0
H176 H 0.94854 0.59052 0.31691 0.0
C177 C 0.07883 0.50255 0.32275 0.0
H178 H 0.94146 0.49145 0.31766 0.0
C179 C 0.08288 0.55907 0.3221 0.0
C180 C 0.03613 0.59157 0.32036 0.0
H181 H 0.11558 0.4786 0.32473 0.0
H182 H 0.12266 0.57729 0.32368 0.0
C183 C 0.98525 0.56644 0.31833 0.0
C184 C 0.11471 0.16701 0.25314 0.0
C185 C 0.13128 0.21704 0.26922 0.0
H186 H 0.13605 0.09752 0.21751 0.0
C187 C 0.18381 0.23575 0.26095 0.0
H188 H 0.07425 0.15188 0.25873 0.0
C189 C 0.21963 0.20411 0.23779 0.0
C190 C 0.20288 0.15406 0.2217 0.0
H191 H 0.19744 0.2743 0.27293 0.0
H192 H 0.26032 0.21874 0.23249 0.0
C193 C 0.14993 0.13613 0.22925 0.0
C194 C 0.87279 0.22049 0.73138 0.0
C195 C 0.92847 0.20958 0.72818 0.0
H196 H 0.79587 0.19356 0.75404 0.0
C197 C 0.9496 0.16284 0.74688 0.0
H198 H 0.85548 0.25625 0.71727 0.0
C199 C 0.9159 0.1277 0.76838 0.0
C200 C 0.86012 0.138 0.77112 0.0
H201 H 0.99242 0.1535 0.74515 0.0
H202 H 0.93349 0.09195 0.78233 0.0
C203 C 0.83877 0.18467 0.75238 0.0
C204 C 0.9403 0.85748 0.22364 0.0
C205 C 0.92973 0.8413 0.2638 0.0
H206 H 0.91408 0.90435 0.17253 0.0
C207 C 0.88131 0.85812 0.28246 0.0
H208 H 0.9773 0.84521 0.20845 0.0
C209 C 0.84487 0.89169 0.26175 0.0
C210 C 0.85644 0.90948 0.22212 0.0
H211 H 0.87204 0.84619 0.31336 0.0
H212 H 0.80841 0.90496 0.2772 0.0
C213 C 0.90414 0.89143 0.20308 0.0
C214 C 0.12913 0.92076 0.73736 0.0
C215 C 0.14946 0.87112 0.72266 0.0
H216 H 0.14503 0.99363 0.77049 0.0
C217 C 0.2037 0.85734 0.73035 0.0
H218 H 0.08742 0.93243 0.73212 0.0
C219 C 0.23704 0.89292 0.7521 0.0
C220 C 0.21634 0.9423 0.76709 0.0
H221 H 0.22037 0.8193 0.71943 0.0
H222 H 0.27882 0.88161 0.75746 0.0
C223 C 0.16205 0.95573 0.75956 0.0
C224 C 0.83033 0.89023 0.72485 0.0
C225 C 0.83217 0.89276 0.76742 0.0
H226 H 0.86543 0.85699 0.67077 0.0
C227 C 0.86644 0.85702 0.78852 0.0
H228 H 0.804 0.91706 0.70781 0.0
C229 C 0.90135 0.8224 0.76734 0.0
C230 C 0.90275 0.8232 0.72472 0.0
H231 H 0.8683 0.85773 0.82138 0.0
H232 H 0.92948 0.7975 0.78439 0.0
C233 C 0.86545 0.8558 0.70365 0.0
C234 C 0.22675 0.87087 0.21654 0.0
C235 C 0.24545 0.9185 0.23519 0.0
H236 H 0.17775 0.79978 0.22214 0.0
C237 C 0.23265 0.92827 0.27613 0.0
H238 H 0.23624 0.86226 0.18505 0.0
C239 C 0.19866 0.89286 0.29722 0.0
C240 C 0.17752 0.8468 0.27785 0.0
H241 H 0.24654 0.96469 0.29127 0.0
H242 H 0.18738 0.90263 0.32819 0.0
C243 C 0.19333 0.83512 0.23778 0.0
C244 C 0.17998 0.26061 0.76776 0.0
C245 C 0.17728 0.25861 0.72519 0.0
H246 H 0.21344 0.22563 0.82165 0.0
C247 C 0.21331 0.22471 0.70389 0.0
H248 H 0.15285 0.28654 0.78497 0.0
C249 C 0.24812 0.18994 0.7249 0.0
C250 C 0.24717 0.18834 0.76751 0.0
H251 H 0.21236 0.22264 0.67104 0.0
H252 H 0.27323 0.16198 0.70773 0.0
C253 C 0.21454 0.22559 0.78877 0.0
C254 C 0.89473 0.23228 0.22767 0.0
C255 C 0.89202 0.23473 0.27023 0.0
H256 H 0.86854 0.19169 0.17371 0.0
C257 C 0.85535 0.2011 0.2909 0.0
H258 H 0.92267 0.25771 0.21095 0.0
C259 C 0.82429 0.16342 0.26958 0.0
C260 C 0.82968 0.15849 0.22728 0.0
H261 H 0.85231 0.20225 0.32371 0.0
H262 H 0.79788 0.13657 0.28645 0.0
C263 C 0.86397 0.1943 0.20637 0.0
loop_
_geom_bond_atom_site_label_1
_geom_bond_atom_site_label_2
_geom_bond_distance
_geom_bond_site_symmetry_2
_ccdc_geom_bond_type
In0 O1 2.294 . S
In0 O2 2.326 1_545 S
In0 O6 2.266 . S
In0 O7 2.326 . S
In0 O8 2.266 1_545 S
In0 O9 2.326 1_545 S
In0 O11 2.294 . S
In0 O12 2.326 . S
O1 In0 2.294 . S
O1 C10 1.240 . S
O2 In0 2.326 1_565 S
O2 C10 1.252 1_565 S
C3 O6 1.252 . S
C3 O7 1.260 . S
C4 O11 1.240 . S
C4 O12 1.252 . S
C5 O8 1.252 . S
C5 O9 1.260 . S
O6 In0 2.266 . S
O6 C3 1.252 . S
O7 In0 2.326 . S
O7 C3 1.260 . S
O8 In0 2.266 1_565 S
O8 C5 1.252 . S
O9 In0 2.326 1_565 S
O9 C5 1.260 . S
C10 O1 1.240 . S
C10 O2 1.252 1_545 S
O11 In0 2.294 . S
O11 C4 1.240 . S
O12 In0 2.326 . S
O12 C4 1.252 . S
In13 O14 2.294 . S
In13 O15 2.326 . S
In13 O19 2.266 1_455 S
In13 O20 2.326 . S
In13 O21 2.266 . S
In13 O22 2.326 . S
In13 O24 2.294 . S
In13 O25 2.326 . S
O14 In13 2.294 . S
O14 C23 1.240 . S
O15 In13 2.326 . S
O15 C23 1.252 . S
C16 O19 1.252 . S
C16 O20 1.260 1_655 S
C17 O24 1.240 . S
C17 O25 1.252 . S
C18 O21 1.252 . S
C18 O22 1.260 . S
O19 In13 2.266 1_655 S
O19 C16 1.252 . S
O20 In13 2.326 . S
O20 C16 1.260 1_455 S
O21 In13 2.266 . S
O21 C18 1.252 . S
O22 In13 2.326 . S
O22 C18 1.260 . S
C23 O14 1.240 . S
C23 O15 1.252 . S
O24 In13 2.294 . S
O24 C17 1.240 . S
O25 In13 2.326 . S
O25 C17 1.252 . S
In26 O27 2.294 . S
In26 O28 2.326 . S
In26 O32 2.266 1_545 S
In26 O33 2.326 . S
In26 O34 2.266 . S
In26 O35 2.326 . S
In26 O37 2.294 . S
In26 O38 2.326 . S
O27 In26 2.294 . S
O27 C36 1.240 . S
O28 In26 2.326 . S
O28 C36 1.252 . S
C29 O32 1.252 . S
C29 O33 1.260 1_565 S
C30 O37 1.240 . S
C30 O38 1.252 . S
C31 O34 1.252 . S
C31 O35 1.260 . S
O32 In26 2.266 1_565 S
O32 C29 1.252 . S
O33 In26 2.326 . S
O33 C29 1.260 1_545 S
O34 In26 2.266 . S
O34 C31 1.252 . S
O35 In26 2.326 . S
O35 C31 1.260 . S
C36 O27 1.240 . S
C36 O28 1.252 . S
O37 In26 2.294 . S
O37 C30 1.240 . S
O38 In26 2.326 . S
O38 C30 1.252 . S
In39 O40 2.294 . S
In39 O41 2.326 . S
In39 O45 2.266 1_455 S
In39 O46 2.326 1_455 S
In39 O47 2.266 . S
In39 O48 2.326 . S
In39 O50 2.294 . S
In39 O51 2.326 1_455 S
O40 In39 2.294 . S
O40 C49 1.240 . S
O41 In39 2.326 . S
O41 C49 1.252 . S
C42 O45 1.252 . S
C42 O46 1.260 . S
C43 O50 1.240 . S
C43 O51 1.252 1_455 S
C44 O47 1.252 . S
C44 O48 1.260 . S
O45 In39 2.266 1_655 S
O45 C42 1.252 . S
O46 In39 2.326 1_655 S
O46 C42 1.260 . S
O47 In39 2.266 . S
O47 C44 1.252 . S
O48 In39 2.326 . S
O48 C44 1.260 . S
C49 O40 1.240 . S
C49 O41 1.252 . S
O50 In39 2.294 . S
O50 C43 1.240 . S
O51 In39 2.326 1_655 S
O51 C43 1.252 1_655 S
In52 O53 2.294 . S
In52 O54 2.326 . S
In52 O58 2.266 . S
In52 O59 2.326 . S
In52 O60 2.266 1_545 S
In52 O61 2.326 . S
In52 O63 2.294 . S
In52 O64 2.326 . S
O53 In52 2.294 . S
O53 C62 1.240 . S
O54 In52 2.326 . S
O54 C62 1.252 . S
C55 O58 1.252 . S
C55 O59 1.260 . S
C56 O63 1.240 . S
C56 O64 1.252 . S
C57 O60 1.252 . S
C57 O61 1.260 1_565 S
O58 In52 2.266 . S
O58 C55 1.252 . S
O59 In52 2.326 . S
O59 C55 1.260 . S
O60 In52 2.266 1_565 S
O60 C57 1.252 . S
O61 In52 2.326 . S
O61 C57 1.260 1_545 S
C62 O53 1.240 . S
C62 O54 1.252 . S
O63 In52 2.294 . S
O63 C56 1.240 . S
O64 In52 2.326 . S
O64 C56 1.252 . S
In65 O66 2.294 . S
In65 O67 2.326 1_455 S
In65 O71 2.266 . S
In65 O72 2.326 . S
In65 O73 2.266 1_455 S
In65 O74 2.326 1_455 S
In65 O76 2.294 . S
In65 O77 2.326 . S
O66 In65 2.294 . S
O66 C75 1.240 . S
O67 In65 2.326 1_655 S
O67 C75 1.252 1_655 S
C68 O71 1.252 . S
C68 O72 1.260 . S
C69 O76 1.240 . S
C69 O77 1.252 . S
C70 O73 1.252 . S
C70 O74 1.260 . S
O71 In65 2.266 . S
O71 C68 1.252 . S
O72 In65 2.326 . S
O72 C68 1.260 . S
O73 In65 2.266 1_655 S
O73 C70 1.252 . S
O74 In65 2.326 1_655 S
O74 C70 1.260 . S
C75 O66 1.240 . S
C75 O67 1.252 1_455 S
O76 In65 2.294 . S
O76 C69 1.240 . S
O77 In65 2.326 . S
O77 C69 1.252 . S
In78 O79 2.294 . S
In78 O80 2.326 . S
In78 O84 2.266 1_545 S
In78 O85 2.326 1_545 S
In78 O86 2.266 . S
In78 O87 2.326 . S
In78 O89 2.294 . S
In78 O90 2.326 1_545 S
O79 In78 2.294 . S
O79 C88 1.240 . S
O80 In78 2.326 . S
O80 C88 1.252 . S
C81 O84 1.252 . S
C81 O85 1.260 . S
C82 O89 1.240 . S
C82 O90 1.252 1_545 S
C83 O86 1.252 . S
C83 O87 1.260 . S
O84 In78 2.266 1_565 S
O84 C81 1.252 . S
O85 In78 2.326 1_565 S
O85 C81 1.260 . S
O86 In78 2.266 . S
O86 C83 1.252 . S
O87 In78 2.326 . S
O87 C83 1.260 . S
C88 O79 1.240 . S
C88 O80 1.252 . S
O89 In78 2.294 . S
O89 C82 1.240 . S
O90 In78 2.326 1_565 S
O90 C82 1.252 1_565 S
In91 O92 2.294 . S
In91 O93 2.326 . S
In91 O97 2.266 . S
In91 O98 2.326 . S
In91 O99 2.266 1_455 S
In91 O100 2.326 . S
In91 O102 2.294 . S
In91 O103 2.326 . S
O92 In91 2.294 . S
O92 C101 1.240 . S
O93 In91 2.326 . S
O93 C101 1.252 . S
C94 O97 1.252 . S
C94 O98 1.260 . S
C95 O102 1.240 . S
C95 O103 1.252 . S
C96 O99 1.252 . S
C96 O100 1.260 1_655 S
O97 In91 2.266 . S
O97 C94 1.252 . S
O98 In91 2.326 . S
O98 C94 1.260 . S
O99 In91 2.266 1_655 S
O99 C96 1.252 . S
O100 In91 2.326 . S
O100 C96 1.260 1_455 S
C101 O92 1.240 . S
C101 O93 1.252 . S
O102 In91 2.294 . S
O102 C95 1.240 . S
O103 In91 2.326 . S
O103 C95 1.252 . S
C104 C105 1.387 . S
C104 H108 0.950 . S
C104 C113 1.390 1_554 S
C105 C104 1.387 . S
C105 C107 1.387 . S
H106 C113 0.950 . S
C107 C105 1.387 . S
C107 C109 1.390 1_554 S
C107 H111 0.950 . S
H108 C104 0.950 . S
C109 C107 1.390 1_556 S
C109 C110 1.387 . S
C109 H112 0.950 . S
C110 C109 1.387 . S
C110 C113 1.387 . S
H111 C107 0.950 . S
H112 C109 0.950 . S
C113 C104 1.390 1_556 S
C113 H106 0.950 . S
C113 C110 1.387 . S
C114 C115 1.387 . S
C114 H118 0.950 . S
C114 C123 1.390 . S
C115 C114 1.387 . S
C115 C117 1.387 . S
H116 C123 0.950 . S
C117 C115 1.387 . S
C117 C119 1.390 . S
C117 H121 0.950 . S
H118 C114 0.950 . S
C119 C117 1.390 . S
C119 C120 1.387 . S
C119 H122 0.950 . S
C120 C119 1.387 . S
C120 C123 1.387 . S
H121 C117 0.950 . S
H122 C119 0.950 . S
C123 C114 1.390 . S
C123 H116 0.950 . S
C123 C120 1.387 . S
C124 C125 1.387 . S
C124 H128 0.950 . S
C124 C133 1.390 1_556 S
C125 C124 1.387 . S
C125 C127 1.387 . S
H126 C133 0.950 . S
C127 C125 1.387 . S
C127 C129 1.390 1_556 S
C127 H131 0.950 . S
H128 C124 0.950 . S
C129 C127 1.390 1_554 S
C129 C130 1.387 . S
C129 H132 0.950 . S
C130 C129 1.387 . S
C130 C133 1.387 . S
H131 C127 0.950 . S
H132 C129 0.950 . S
C133 C124 1.390 1_554 S
C133 H126 0.950 . S
C133 C130 1.387 . S
C134 C135 1.387 . S
C134 H138 0.950 . S
C134 C143 1.390 . S
C135 C134 1.387 . S
C135 C137 1.387 . S
H136 C143 0.950 . S
C137 C135 1.387 . S
C137 C139 1.390 . S
C137 H141 0.950 . S
H138 C134 0.950 . S
C139 C137 1.390 . S
C139 C140 1.387 . S
C139 H142 0.950 . S
C140 C139 1.387 . S
C140 C143 1.387 . S
H141 C137 0.950 . S
H142 C139 0.950 . S
C143 C134 1.390 . S
C143 H136 0.950 . S
C143 C140 1.387 . S
C144 C145 1.387 . S
C144 H148 0.950 . S
C144 C153 1.390 . S
C145 C144 1.387 . S
C145 C147 1.387 . S
H146 C153 0.950 . S
C147 C145 1.387 . S
C147 C149 1.390 . S
C147 H151 0.950 . S
H148 C144 0.950 . S
C149 C147 1.390 . S
C149 C150 1.387 . S
C149 H152 0.950 . S
C150 C149 1.387 . S
C150 C153 1.387 . S
H151 C147 0.950 . S
H152 C149 0.950 . S
C153 C144 1.390 . S
C153 H146 0.950 . S
C153 C150 1.387 . S
C154 C155 1.387 . S
C154 H158 0.950 . S
C154 C163 1.390 . S
C155 C154 1.387 . S
C155 C157 1.387 . S
H156 C163 0.950 . S
C157 C155 1.387 . S
C157 C159 1.390 . S
C157 H161 0.950 . S
H158 C154 0.950 . S
C159 C157 1.390 . S
C159 C160 1.387 . S
C159 H162 0.950 . S
C160 C159 1.387 . S
C160 C163 1.387 . S
H161 C157 0.950 . S
H162 C159 0.950 . S
C163 C154 1.390 . S
C163 H156 0.950 . S
C163 C160 1.387 . S
C164 C165 1.387 . S
C164 H168 0.950 . S
C164 C173 1.390 . S
C165 C164 1.387 . S
C165 C167 1.387 . S
H166 C173 0.950 . S
C167 C165 1.387 . S
C167 C169 1.390 . S
C167 H171 0.950 . S
H168 C164 0.950 . S
C169 C167 1.390 . S
C169 C170 1.387 . S
C169 H172 0.950 . S
C170 C169 1.387 . S
C170 C173 1.387 . S
H171 C167 0.950 . S
H172 C169 0.950 . S
C173 C164 1.390 . S
C173 H166 0.950 . S
C173 C170 1.387 . S
C174 C175 1.387 . S
C174 H178 0.950 . S
C174 C183 1.390 . S
C175 C174 1.387 . S
C175 C177 1.387 . S
H176 C183 0.950 . S
C177 C175 1.387 . S
C177 C179 1.390 . S
C177 H181 0.950 . S
H178 C174 0.950 . S
C179 C177 1.390 . S
C179 C180 1.387 . S
C179 H182 0.950 . S
C180 C179 1.387 . S
C180 C183 1.387 . S
H181 C177 0.950 . S
H182 C179 0.950 . S
C183 C174 1.390 . S
C183 H176 0.950 . S
C183 C180 1.387 . S
C184 C185 1.387 . S
C184 H188 0.950 . S
C184 C193 1.390 . S
C185 C184 1.387 . S
C185 C187 1.387 . S
H186 C193 0.950 . S
C187 C185 1.387 . S
C187 C189 1.390 . S
C187 H191 0.950 . S
H188 C184 0.950 . S
C189 C187 1.390 . S
C189 C190 1.387 . S
C189 H192 0.950 . S
C190 C189 1.387 . S
C190 C193 1.387 . S
H191 C187 0.950 . S
H192 C189 0.950 . S
C193 C184 1.390 . S
C193 H186 0.950 . S
C193 C190 1.387 . S
C194 C195 1.387 . S
C194 H198 0.950 . S
C194 C203 1.390 . S
C195 C194 1.387 . S
C195 C197 1.387 . S
H196 C203 0.950 . S
C197 C195 1.387 . S
C197 C199 1.390 . S
C197 H201 0.950 . S
H198 C194 0.950 . S
C199 C197 1.390 . S
C199 C200 1.387 . S
C199 H202 0.950 . S
C200 C199 1.387 . S
C200 C203 1.387 . S
H201 C197 0.950 . S
H202 C199 0.950 . S
C203 C194 1.390 . S
C203 H196 0.950 . S
C203 C200 1.387 . S
C204 C205 1.387 . S
C204 H208 0.950 . S
C204 C213 1.390 . S
C205 C204 1.387 . S
C205 C207 1.387 . S
H206 C213 0.950 . S
C207 C205 1.387 . S
C207 C209 1.390 . S
C207 H211 0.950 . S
H208 C204 0.950 . S
C209 C207 1.390 . S
C209 C210 1.387 . S
C209 H212 0.950 . S
C210 C209 1.387 . S
C210 C213 1.387 . S
H211 C207 0.950 . S
H212 C209 0.950 . S
C213 C204 1.390 . S
C213 H206 0.950 . S
C213 C210 1.387 . S
C214 C215 1.387 . S
C214 H218 0.950 . S
C214 C223 1.390 . S
C215 C214 1.387 . S
C215 C217 1.387 . S
H216 C223 0.945 1_545 S
C217 C215 1.387 . S
C217 C219 1.390 . S
C217 H221 0.950 . S
H218 C214 0.950 . S
C219 C217 1.390 . S
C219 C220 1.387 . S
C219 H222 0.950 . S
C220 C219 1.387 . S
C220 C223 1.387 . S
H221 C217 0.950 . S
H222 C219 0.950 . S
C223 C214 1.390 . S
C223 H216 0.945 1_565 S
C223 C220 1.387 . S
C224 C225 1.387 . S
C224 H228 0.950 . S
C224 C233 1.390 . S
C225 C224 1.387 . S
C225 C227 1.387 . S
H226 C233 0.950 . S
C227 C225 1.387 . S
C227 C229 1.390 . S
C227 H231 0.950 . S
H228 C224 0.950 . S
C229 C227 1.390 . S
C229 C230 1.387 . S
C229 H232 0.950 . S
C230 C229 1.387 . S
C230 C233 1.387 . S
H231 C227 0.950 . S
H232 C229 0.950 . S
C233 C224 1.390 . S
C233 H226 0.950 . S
C233 C230 1.387 . S
C234 C235 1.387 . S
C234 H238 0.950 . S
C234 C243 1.390 . S
C235 C234 1.387 . S
C235 C237 1.387 . S
H236 C243 0.950 . S
C237 C235 1.387 . S
C237 C239 1.390 . S
C237 H241 0.950 . S
H238 C234 0.950 . S
C239 C237 1.390 . S
C239 C240 1.387 . S
C239 H242 0.950 . S
C240 C239 1.387 . S
C240 C243 1.387 . S
H241 C237 0.950 . S
H242 C239 0.950 . S
C243 C234 1.390 . S
C243 H236 0.950 . S
C243 C240 1.387 . S
C244 C245 1.387 . S
C244 H248 0.950 . S
C244 C253 1.390 . S
C245 C244 1.387 . S
C245 C247 1.387 . S
H246 C253 0.950 . S
C247 C245 1.387 . S
C247 C249 1.390 . S
C247 H251 0.950 . S
H248 C244 0.950 . S
C249 C247 1.390 . S
C249 C250 1.387 . S
C249 H252 0.950 . S
C250 C249 1.387 . S
C250 C253 1.387 . S
H251 C247 0.950 . S
H252 C249 0.950 . S
C253 C244 1.390 . S
C253 H246 0.950 . S
C253 C250 1.387 . S
C254 C255 1.387 . S
C254 H258 0.950 . S
C254 C263 1.390 . S
C255 C254 1.387 . S
C255 C257 1.387 . S
H256 C263 0.950 . S
C257 C255 1.387 . S
C257 C259 1.390 . S
C257 H261 0.950 . S
H258 C254 0.950 . S
C259 C257 1.390 . S
C259 C260 1.387 . S
C259 H262 0.950 . S
C260 C259 1.387 . S
C260 C263 1.387 . S
H261 C257 0.950 . S
H262 C259 0.950 . S
C263 C254 1.390 . S
C263 H256 0.950 . S
C263 C260 1.387 . S
C105 C4 1.595 . S
C110 C62 1.595 . S
C115 C17 1.595 . S
C120 C69 1.595 . S
C125 C88 1.595 . S
C130 C30 1.595 . S
C135 C101 1.595 . S
C140 C49 1.595 . S
C145 C10 1.475 . S
C150 C36 1.475 . S
C155 C23 1.475 . S
C160 C43 1.475 . S
C165 C82 1.478 . S
C170 C56 1.478 . S
C175 C75 1.478 . S
C180 C95 1.478 . S
C185 C68 1.619 . S
C190 C3 1.619 . S
C195 C16 1.618 . S
C200 C83 1.618 . S
C205 C96 1.619 . S
C210 C29 1.619 . S
C215 C44 1.619 . S
C220 C57 1.619 . S
C225 C81 1.331 . S
C230 C42 1.331 . S
C235 C5 1.329 . S
C240 C94 1.330 . S
C245 C18 1.330 . S
C250 C55 1.329 . S
C255 C70 1.331 . S
C260 C31 1.329 . S
