# Generated by pormake.
# Topology dft, (4)-cn, num edge types: 1
# Building blocks:
#     Node 0, Type 0, BuildingBlock: QUQFOY_clean_sbu_3, # of connection points: 4
#     Node 1, Type 0, BuildingBlock: QUQFOY_clean_sbu_3, # of connection points: 4
#     Node 2, Type 0, BuildingBlock: QUQFOY_clean_sbu_3, # of connection points: 4
#     Node 3, Type 0, BuildingBlock: QUQFOY_clean_sbu_3, # of connection points: 4
#     Node 4, Type 0, BuildingBlock: QUQFOY_clean_sbu_3, # of connection points: 4
#     Node 5, Type 0, BuildingBlock: QUQFOY_clean_sbu_3, # of connection points: 4
#     Node 6, Type 0, BuildingBlock: QUQFOY_clean_sbu_3, # of connection points: 4
#     Node 7, Type 0, BuildingBlock: QUQFOY_clean_sbu_3, # of connection points: 4
#     Edge 8, Type (0, 0), BuildingBlock: EYOCIG_clean_linker_4, # of connection points: 2
#     Edge 9, Type (0, 0), BuildingBlock: EYOCIG_clean_linker_4, # of connection points: 2
#     Edge 10, Type (0, 0), BuildingBlock: EYOCIG_clean_linker_4, # of connection points: 2
#     Edge 11, Type (0, 0), BuildingBlock: EYOCIG_clean_linker_4, # of connection points: 2
#     Edge 12, Type (0, 0), BuildingBlock: EYOCIG_clean_linker_4, # of connection points: 2
#     Edge 13, Type (0, 0), BuildingBlock: EYOCIG_clean_linker_4, # of connection points: 2
#     Edge 14, Type (0, 0), BuildingBlock: EYOCIG_clean_linker_4, # of connection points: 2
#     Edge 15, Type (0, 0), BuildingBlock: EYOCIG_clean_linker_4, # of connection points: 2
#     Edge 16, Type (0, 0), BuildingBlock: EYOCIG_clean_linker_4, # of connection points: 2
#     Edge 17, Type (0, 0), BuildingBlock: EYOCIG_clean_linker_4, # of connection points: 2
#     Edge 18, Type (0, 0), BuildingBlock: EYOCIG_clean_linker_4, # of connection points: 2
#     Edge 19, Type (0, 0), BuildingBlock: EYOCIG_clean_linker_4, # of connection points: 2
#     Edge 20, Type (0, 0), BuildingBlock: EYOCIG_clean_linker_4, # of connection points: 2
#     Edge 21, Type (0, 0), BuildingBlock: EYOCIG_clean_linker_4, # of connection points: 2
#     Edge 22, Type (0, 0), BuildingBlock: EYOCIG_clean_linker_4, # of connection points: 2
#     Edge 23, Type (0, 0), BuildingBlock: EYOCIG_clean_linker_4, # of connection points: 2
# Relax obj value: 0.179
# Max RMSD: 0.171
# Mean RMSD: 0.171
data_MOF--net-dft--node1-QUQFOY_clean_sbu_3--edge1-EYOCIG_clean_linker_4
_symmetry_space_group_name_H-M    P1
_symmetry_Int_Tables_number       1
_symmetry_cell_setting            triclinic
loop_
_symmetry_equiv_pos_as_xyz
'x, y, z'
_cell_length_a     29.741212
_cell_length_b     29.710244
_cell_length_c     34.01602
_cell_angle_alpha  90.095607
_cell_angle_beta   90.002024
_cell_angle_gamma 90.00162
loop_
_atom_site_label
_atom_site_type_symbol
_atom_site_fract_x
_atom_site_fract_y
_atom_site_fract_z
_atom_type_partial_charge
C0 C 0.24032 0.91992 0.18547 0.0
O1 O 0.21029 0.93138 0.16105 0.0
Cd2 Cd 0.2125 -0.00827 0.11617 0.0
O3 O 0.27665 0.9422 0.18955 0.0
Cd4 Cd 0.30794 0.01036 0.15623 0.0
C5 C 0.22013 0.07921 0.18135 0.0
O6 O 0.28663 -0.01671 0.091 0.0
O7 O 0.3147 0.05012 0.09234 0.0
O8 O 0.38189 -0.02553 0.16323 0.0
C9 C 0.30128 0.0168 0.07229 0.0
O10 O 0.19774 0.05895 0.15491 0.0
C11 C 0.40173 0.00972 0.17507 0.0
O12 O 0.26012 0.06732 0.18989 0.0
O13 O 0.378 0.04473 0.18002 0.0
C14 C 0.10882 0.2403 0.68417 0.0
O15 O 0.09712 0.21046 0.65957 0.0
Cd16 Cd 0.0364 0.21318 0.61507 0.0
O17 O 0.08653 0.27658 0.68875 0.0
Cd18 Cd 0.01799 0.30815 0.6562 0.0
C19 C 0.9491 0.21995 0.68026 0.0
O20 O 0.04456 0.28767 0.59074 0.0
O21 O -0.02233 0.31541 0.59259 0.0
O22 O 0.05402 0.38207 0.66337 0.0
C23 C 0.01089 0.30236 0.5723 0.0
O24 O -0.03075 0.19789 0.65355 0.0
C25 C 0.01899 0.40196 0.67557 0.0
O26 O 0.96112 0.25982 0.68935 0.0
O27 O -0.01595 0.37823 0.68071 0.0
C28 C 0.78669 0.10947 0.18557 0.0
O29 O 0.81684 0.09812 0.1612 0.0
Cd30 Cd 0.81521 0.03743 0.11641 0.0
O31 O 0.75055 0.0869 0.18965 0.0
Cd32 Cd 0.71987 0.01833 0.15641 0.0
C33 C 0.80802 0.95019 0.18158 0.0
O34 O 0.74105 0.04473 0.09105 0.0
O35 O 0.71358 -0.02235 0.09285 0.0
O36 O 0.64572 0.05385 0.16284 0.0
C37 C 0.72675 0.01082 0.07258 0.0
O38 O 0.83031 -0.02955 0.15515 0.0
C39 C 0.62607 0.01872 0.17508 0.0
O40 O 0.76797 0.96191 0.19013 0.0
O41 O 0.65 -0.01605 0.18048 0.0
C42 C 0.91923 0.78726 0.68619 0.0
O43 O 0.93044 0.81755 0.66192 0.0
Cd44 Cd -0.00959 0.81591 0.61653 0.0
O45 O 0.94174 0.75102 0.68997 0.0
Cd46 Cd 0.00994 0.72037 0.65627 0.0
C47 C 0.07894 0.80848 0.68031 0.0
O48 O -0.0176 0.74166 0.59128 0.0
O49 O 0.04924 0.7137 0.5922 0.0
O50 O -0.02514 0.64599 0.66308 0.0
C51 C 0.01585 0.72714 0.57237 0.0
O52 O 0.05825 0.83087 0.65419 0.0
C53 C 0.01016 0.62653 0.67516 0.0
O54 O 0.06715 0.76849 0.68906 0.0
O55 O 0.04484 0.65066 0.68027 0.0
C56 C 0.24069 0.1086 0.76265 0.0
O57 O 0.21062 0.09698 0.78698 0.0
Cd58 Cd 0.21282 0.03639 0.83166 0.0
O59 O 0.27704 0.08636 0.75855 0.0
Cd60 Cd 0.30826 0.01798 0.79162 0.0
C61 C 0.22068 0.94913 0.76632 0.0
O62 O 0.28692 0.04444 0.85704 0.0
O63 O 0.31479 -0.02246 0.85518 0.0
O64 O 0.38246 0.05346 0.7851 0.0
C65 C 0.30142 0.01067 0.87548 0.0
O66 O 0.19824 -0.03078 0.79281 0.0
C67 C 0.40204 0.01829 0.77275 0.0
O68 O 0.26062 0.96119 0.75777 0.0
O69 O 0.37805 -0.01645 0.76734 0.0
C70 C 0.91854 0.24085 0.26403 0.0
O71 O 0.9303 0.21096 0.28847 0.0
Cd72 Cd -0.00875 0.2137 0.33278 0.0
O73 O 0.9409 0.27706 0.25947 0.0
Cd74 Cd 0.00968 0.30858 0.29173 0.0
C75 C 0.07852 0.22025 0.26758 0.0
O76 O -0.01663 0.28826 0.35725 0.0
O77 O 0.05023 0.31608 0.35526 0.0
O78 O -0.02642 0.38243 0.28452 0.0
C79 C 0.01713 0.30295 0.37562 0.0
O80 O 0.05839 0.19826 0.29428 0.0
C81 C 0.0085 0.40225 0.27206 0.0
O82 O 0.06646 0.26008 0.25851 0.0
O83 O 0.04345 0.37852 0.2669 0.0
C84 C 0.78747 0.91876 0.76382 0.0
O85 O 0.81767 0.93083 0.78789 0.0
Cd86 Cd 0.81548 -0.00802 0.83211 0.0
O87 O 0.75113 0.94095 0.75956 0.0
Cd88 Cd 0.72007 0.00996 0.79189 0.0
C89 C 0.80794 0.07875 0.76654 0.0
O90 O 0.74134 -0.01646 0.8572 0.0
O91 O 0.71281 0.05016 0.85571 0.0
O92 O 0.64619 -0.02607 0.78473 0.0
C93 C 0.72646 0.01707 0.87584 0.0
O94 O 0.83032 0.05882 0.79311 0.0
C95 C 0.62634 0.00906 0.77273 0.0
O96 O 0.768 0.06664 0.75799 0.0
O97 O 0.65006 0.04406 0.76778 0.0
C98 C 0.10855 0.78815 0.26409 0.0
O99 O 0.09695 0.8179 0.2888 0.0
Cd100 Cd 0.03624 0.81522 0.33328 0.0
O101 O 0.08615 0.75195 0.25937 0.0
Cd102 Cd 0.0174 0.72047 0.29176 0.0
C103 C 0.94914 0.80903 0.26786 0.0
O104 O 0.04377 0.74059 0.35741 0.0
O105 O -0.02342 0.71363 0.3552 0.0
O106 O 0.05251 0.64615 0.28456 0.0
C107 C 0.00979 0.72633 0.37567 0.0
O108 O -0.03077 0.83089 0.29474 0.0
C109 C 0.01739 0.62676 0.27196 0.0
O110 O 0.96107 0.76919 0.25864 0.0
O111 O -0.01721 0.65093 0.26665 0.0
C112 C 0.30041 0.01502 -0.00537 0.0
C113 C 0.30128 0.01698 0.03006 0.0
C114 C 0.30044 0.01175 0.95315 0.0
C115 C 0.30139 0.01003 0.91771 0.0
C116 C 0.01243 0.30191 0.49468 0.0
C117 C 0.01042 0.30265 0.5301 0.0
C118 C 0.01595 0.30206 0.45324 0.0
C119 C 0.01786 0.30303 0.41783 0.0
C120 C 0.72732 0.01542 0.95348 0.0
C121 C 0.72639 0.01744 0.91806 0.0
C122 C 0.72743 0.01198 -0.00507 0.0
C123 C 0.7266 0.01016 0.03036 0.0
C124 C 0.01048 0.7277 0.4533 0.0
C125 C 0.00882 0.72654 0.41788 0.0
C126 C 0.01377 0.72796 0.49475 0.0
C127 C 0.01582 0.72713 0.53016 0.0
C128 C 0.49018 0.01278 0.18228 0.0
C129 C 0.44982 0.0112 0.17895 0.0
C130 C 0.53764 0.01547 0.18228 0.0
C131 C 0.57799 0.01708 0.17896 0.0
C132 C 0.01624 0.49053 0.68279 0.0
C133 C 0.01763 0.45012 0.67946 0.0
C134 C 0.01367 0.53805 0.68267 0.0
C135 C 0.01201 0.57843 0.67923 0.0
C136 C 0.53791 0.01201 0.76537 0.0
C137 C 0.57826 0.01046 0.76878 0.0
C138 C 0.49045 0.01479 0.76539 0.0
C139 C 0.45011 0.01655 0.76879 0.0
C140 C 0.011 0.49074 0.26423 0.0
C141 C 0.00972 0.45036 0.26784 0.0
C142 C 0.01366 0.53826 0.26422 0.0
C143 C 0.01548 0.57865 0.26778 0.0
C144 C 0.14439 0.17572 0.23278 0.0
C145 C 0.11492 0.19848 0.24709 0.0
C146 C 0.17566 0.14471 0.21677 0.0
C147 C 0.19854 0.11546 0.20222 0.0
C148 C 0.88339 0.17532 0.71509 0.0
C149 C 0.91277 0.19816 0.70078 0.0
C150 C 0.85224 0.14423 0.73107 0.0
C151 C 0.82944 0.11497 0.74562 0.0
C152 C 0.88363 0.85378 0.23295 0.0
C153 C 0.91295 0.83096 0.24733 0.0
C154 C 0.85251 0.8848 0.21689 0.0
C155 C 0.82968 0.91401 0.20236 0.0
C156 C 0.14526 0.85258 0.71479 0.0
C157 C 0.11562 0.82998 0.70058 0.0
C158 C 0.17653 0.88354 0.73081 0.0
C159 C 0.19927 0.91284 0.74539 0.0
C160 C 0.81291 0.84417 0.73107 0.0
C161 C 0.79512 0.87789 0.7428 0.0
C162 C 0.8452 0.81208 0.72003 0.0
C163 C 0.87881 0.79455 0.70785 0.0
C164 C 0.21463 0.84623 0.21944 0.0
C165 C 0.23247 0.87964 0.20719 0.0
C166 C 0.18249 0.81412 0.2307 0.0
C167 C 0.14899 0.79623 0.24267 0.0
C168 C 0.18283 0.21446 0.71755 0.0
C169 C 0.1493 0.23229 0.70555 0.0
C170 C 0.21499 0.18238 0.72883 0.0
C171 C 0.23283 0.14895 0.74104 0.0
C172 C 0.84418 0.21537 0.23095 0.0
C173 C 0.87787 0.23301 0.24285 0.0
C174 C 0.81194 0.18335 0.21964 0.0
C175 C 0.79423 0.14984 0.20735 0.0
loop_
_geom_bond_atom_site_label_1
_geom_bond_atom_site_label_2
_geom_bond_distance
_geom_bond_site_symmetry_2
_ccdc_geom_bond_type
C0 O1 1.306 . S
C0 O3 1.160 . S
O1 C0 1.306 . S
O1 Cd2 2.228 1_565 S
Cd2 O1 2.228 1_545 S
Cd2 O6 2.273 . S
Cd2 O10 2.277 . S
O3 C0 1.160 . S
O3 Cd4 2.203 1_565 S
Cd4 O3 2.203 1_545 S
Cd4 O6 2.411 . S
Cd4 O7 2.333 . S
Cd4 O8 2.352 1_545 S
Cd4 O12 2.277 . S
Cd4 O13 2.356 . S
C5 O10 1.209 . S
C5 O12 1.226 . S
O6 Cd2 2.273 . S
O6 Cd4 2.411 . S
O6 C9 1.320 . S
O7 Cd4 2.333 . S
O7 C9 1.214 . S
O8 Cd4 2.352 1_565 S
O8 C11 1.258 1_565 S
C9 O6 1.320 . S
C9 O7 1.214 . S
O10 Cd2 2.277 . S
O10 C5 1.209 . S
C11 O8 1.258 1_545 S
C11 O13 1.282 . S
O12 Cd4 2.277 . S
O12 C5 1.226 . S
O13 Cd4 2.356 . S
O13 C11 1.282 . S
C14 O15 1.306 . S
C14 O17 1.160 . S
O15 C14 1.306 . S
O15 Cd16 2.228 . S
Cd16 O15 2.228 . S
Cd16 O20 2.273 . S
Cd16 O24 2.277 . S
O17 C14 1.160 . S
O17 Cd18 2.203 . S
Cd18 O17 2.203 . S
Cd18 O20 2.411 . S
Cd18 O21 2.333 . S
Cd18 O22 2.352 . S
Cd18 O26 2.277 1_455 S
Cd18 O27 2.356 . S
C19 O24 1.209 1_655 S
C19 O26 1.226 . S
O20 Cd16 2.273 . S
O20 Cd18 2.411 . S
O20 C23 1.320 . S
O21 Cd18 2.333 . S
O21 C23 1.214 . S
O22 Cd18 2.352 . S
O22 C25 1.258 . S
C23 O20 1.320 . S
C23 O21 1.214 . S
O24 Cd16 2.277 . S
O24 C19 1.209 1_455 S
C25 O22 1.258 . S
C25 O27 1.282 . S
O26 Cd18 2.277 1_655 S
O26 C19 1.226 . S
O27 Cd18 2.356 . S
O27 C25 1.282 . S
C28 O29 1.306 . S
C28 O31 1.160 . S
O29 C28 1.306 . S
O29 Cd30 2.228 . S
Cd30 O29 2.228 . S
Cd30 O34 2.273 . S
Cd30 O38 2.277 . S
O31 C28 1.160 . S
O31 Cd32 2.203 . S
Cd32 O31 2.203 . S
Cd32 O34 2.411 . S
Cd32 O35 2.333 . S
Cd32 O36 2.352 . S
Cd32 O40 2.277 1_545 S
Cd32 O41 2.356 . S
C33 O38 1.209 1_565 S
C33 O40 1.226 . S
O34 Cd30 2.273 . S
O34 Cd32 2.411 . S
O34 C37 1.320 . S
O35 Cd32 2.333 . S
O35 C37 1.214 . S
O36 Cd32 2.352 . S
O36 C39 1.258 . S
C37 O34 1.320 . S
C37 O35 1.214 . S
O38 Cd30 2.277 . S
O38 C33 1.209 1_545 S
C39 O36 1.258 . S
C39 O41 1.282 . S
O40 Cd32 2.277 1_565 S
O40 C33 1.226 . S
O41 Cd32 2.356 . S
O41 C39 1.282 . S
C42 O43 1.306 . S
C42 O45 1.160 . S
O43 C42 1.306 . S
O43 Cd44 2.228 1_655 S
Cd44 O43 2.228 1_455 S
Cd44 O48 2.273 . S
Cd44 O52 2.277 . S
O45 C42 1.160 . S
O45 Cd46 2.203 1_655 S
Cd46 O45 2.203 1_455 S
Cd46 O48 2.411 . S
Cd46 O49 2.333 . S
Cd46 O50 2.352 1_455 S
Cd46 O54 2.277 . S
Cd46 O55 2.356 . S
C47 O52 1.209 . S
C47 O54 1.226 . S
O48 Cd44 2.273 . S
O48 Cd46 2.411 . S
O48 C51 1.320 . S
O49 Cd46 2.333 . S
O49 C51 1.214 . S
O50 Cd46 2.352 1_655 S
O50 C53 1.258 1_655 S
C51 O48 1.320 . S
C51 O49 1.214 . S
O52 Cd44 2.277 . S
O52 C47 1.209 . S
C53 O50 1.258 1_455 S
C53 O55 1.282 . S
O54 Cd46 2.277 . S
O54 C47 1.226 . S
O55 Cd46 2.356 . S
O55 C53 1.282 . S
C56 O57 1.306 . S
C56 O59 1.160 . S
O57 C56 1.306 . S
O57 Cd58 2.228 . S
Cd58 O57 2.228 . S
Cd58 O62 2.273 . S
Cd58 O66 2.277 . S
O59 C56 1.160 . S
O59 Cd60 2.203 . S
Cd60 O59 2.203 . S
Cd60 O62 2.411 . S
Cd60 O63 2.333 . S
Cd60 O64 2.352 . S
Cd60 O68 2.277 1_545 S
Cd60 O69 2.356 . S
C61 O66 1.209 1_565 S
C61 O68 1.226 . S
O62 Cd58 2.273 . S
O62 Cd60 2.411 . S
O62 C65 1.320 . S
O63 Cd60 2.333 . S
O63 C65 1.214 . S
O64 Cd60 2.352 . S
O64 C67 1.258 . S
C65 O62 1.320 . S
C65 O63 1.214 . S
O66 Cd58 2.277 . S
O66 C61 1.209 1_545 S
C67 O64 1.258 . S
C67 O69 1.282 . S
O68 Cd60 2.277 1_565 S
O68 C61 1.226 . S
O69 Cd60 2.356 . S
O69 C67 1.282 . S
C70 O71 1.306 . S
C70 O73 1.160 . S
O71 C70 1.306 . S
O71 Cd72 2.228 1_655 S
Cd72 O71 2.228 1_455 S
Cd72 O76 2.273 . S
Cd72 O80 2.277 . S
O73 C70 1.160 . S
O73 Cd74 2.203 1_655 S
Cd74 O73 2.203 1_455 S
Cd74 O76 2.411 . S
Cd74 O77 2.333 . S
Cd74 O78 2.352 1_455 S
Cd74 O82 2.277 . S
Cd74 O83 2.356 . S
C75 O80 1.209 . S
C75 O82 1.226 . S
O76 Cd72 2.273 . S
O76 Cd74 2.411 . S
O76 C79 1.320 . S
O77 Cd74 2.333 . S
O77 C79 1.214 . S
O78 Cd74 2.352 1_655 S
O78 C81 1.258 1_655 S
C79 O76 1.320 . S
C79 O77 1.214 . S
O80 Cd72 2.277 . S
O80 C75 1.209 . S
C81 O78 1.258 1_455 S
C81 O83 1.282 . S
O82 Cd74 2.277 . S
O82 C75 1.226 . S
O83 Cd74 2.356 . S
O83 C81 1.282 . S
C84 O85 1.306 . S
C84 O87 1.160 . S
O85 C84 1.306 . S
O85 Cd86 2.228 1_565 S
Cd86 O85 2.228 1_545 S
Cd86 O90 2.273 . S
Cd86 O94 2.277 . S
O87 C84 1.160 . S
O87 Cd88 2.203 1_565 S
Cd88 O87 2.203 1_545 S
Cd88 O90 2.411 . S
Cd88 O91 2.333 . S
Cd88 O92 2.352 1_545 S
Cd88 O96 2.277 . S
Cd88 O97 2.356 . S
C89 O94 1.209 . S
C89 O96 1.226 . S
O90 Cd86 2.273 . S
O90 Cd88 2.411 . S
O90 C93 1.320 . S
O91 Cd88 2.333 . S
O91 C93 1.214 . S
O92 Cd88 2.352 1_565 S
O92 C95 1.258 1_565 S
C93 O90 1.320 . S
C93 O91 1.214 . S
O94 Cd86 2.277 . S
O94 C89 1.209 . S
C95 O92 1.258 1_545 S
C95 O97 1.282 . S
O96 Cd88 2.277 . S
O96 C89 1.226 . S
O97 Cd88 2.356 . S
O97 C95 1.282 . S
C98 O99 1.306 . S
C98 O101 1.160 . S
O99 C98 1.306 . S
O99 Cd100 2.228 . S
Cd100 O99 2.228 . S
Cd100 O104 2.273 . S
Cd100 O108 2.277 . S
O101 C98 1.160 . S
O101 Cd102 2.203 . S
Cd102 O101 2.203 . S
Cd102 O104 2.411 . S
Cd102 O105 2.333 . S
Cd102 O106 2.352 . S
Cd102 O110 2.277 1_455 S
Cd102 O111 2.356 . S
C103 O108 1.209 1_655 S
C103 O110 1.226 . S
O104 Cd100 2.273 . S
O104 Cd102 2.411 . S
O104 C107 1.320 . S
O105 Cd102 2.333 . S
O105 C107 1.214 . S
O106 Cd102 2.352 . S
O106 C109 1.258 . S
C107 O104 1.320 . S
C107 O105 1.214 . S
O108 Cd100 2.277 . S
O108 C103 1.209 1_455 S
C109 O106 1.258 . S
C109 O111 1.282 . S
O110 Cd102 2.277 1_655 S
O110 C103 1.226 . S
O111 Cd102 2.356 . S
O111 C109 1.282 . S
C112 C113 1.170 . S
C112 C114 1.380 1_554 S
C113 C112 1.170 . S
C114 C112 1.380 1_556 S
C114 C115 1.170 . S
C115 C114 1.170 . S
C116 C117 1.170 . S
C116 C118 1.380 . S
C117 C116 1.170 . S
C118 C116 1.380 . S
C118 C119 1.170 . S
C119 C118 1.170 . S
C120 C121 1.170 . S
C120 C122 1.380 1_556 S
C121 C120 1.170 . S
C122 C120 1.380 1_554 S
C122 C123 1.170 . S
C123 C122 1.170 . S
C124 C125 1.170 . S
C124 C126 1.380 . S
C125 C124 1.170 . S
C126 C124 1.380 . S
C126 C127 1.170 . S
C127 C126 1.170 . S
C128 C129 1.170 . S
C128 C130 1.380 . S
C129 C128 1.170 . S
C130 C128 1.380 . S
C130 C131 1.170 . S
C131 C130 1.170 . S
C132 C133 1.170 . S
C132 C134 1.380 . S
C133 C132 1.170 . S
C134 C132 1.380 . S
C134 C135 1.170 . S
C135 C134 1.170 . S
C136 C137 1.170 . S
C136 C138 1.380 . S
C137 C136 1.170 . S
C138 C136 1.380 . S
C138 C139 1.170 . S
C139 C138 1.170 . S
C140 C141 1.170 . S
C140 C142 1.380 . S
C141 C140 1.170 . S
C142 C140 1.380 . S
C142 C143 1.170 . S
C143 C142 1.170 . S
C144 C145 1.170 . S
C144 C146 1.380 . S
C145 C144 1.170 . S
C146 C144 1.380 . S
C146 C147 1.170 . S
C147 C146 1.170 . S
C148 C149 1.170 . S
C148 C150 1.380 . S
C149 C148 1.170 . S
C150 C148 1.380 . S
C150 C151 1.170 . S
C151 C150 1.170 . S
C152 C153 1.170 . S
C152 C154 1.380 . S
C153 C152 1.170 . S
C154 C152 1.380 . S
C154 C155 1.170 . S
C155 C154 1.170 . S
C156 C157 1.170 . S
C156 C158 1.380 . S
C157 C156 1.170 . S
C158 C156 1.380 . S
C158 C159 1.170 . S
C159 C158 1.170 . S
C160 C161 1.170 . S
C160 C162 1.380 . S
C161 C160 1.170 . S
C162 C160 1.380 . S
C162 C163 1.170 . S
C163 C162 1.170 . S
C164 C165 1.170 . S
C164 C166 1.380 . S
C165 C164 1.170 . S
C166 C164 1.380 . S
C166 C167 1.170 . S
C167 C166 1.170 . S
C168 C169 1.170 . S
C168 C170 1.380 . S
C169 C168 1.170 . S
C170 C168 1.380 . S
C170 C171 1.170 . S
C171 C170 1.170 . S
C172 C173 1.170 . S
C172 C174 1.380 . S
C173 C172 1.170 . S
C174 C172 1.380 . S
C174 C175 1.170 . S
C175 C174 1.170 . S
C113 C9 1.561 . S
C115 C65 1.565 . S
C117 C23 1.561 . S
C119 C79 1.562 . S
C121 C93 1.561 . S
C123 C37 1.565 . S
C125 C107 1.566 . S
C127 C51 1.561 . S
C129 C11 1.345 . S
C131 C39 1.341 . S
C133 C25 1.356 . S
C135 C53 1.334 . S
C137 C95 1.359 . S
C139 C67 1.333 . S
C141 C81 1.372 . S
C143 C109 1.335 . S
C145 C75 1.526 . S
C147 C5 1.520 . S
C149 C19 1.524 . S
C151 C89 1.519 . S
C153 C103 1.524 . S
C155 C33 1.519 . S
C157 C47 1.530 . S
C159 C61 1.524 . S
C161 C84 1.212 . S
C163 C42 1.241 . S
C165 C0 1.211 . S
C167 C98 1.192 . S
C169 C14 1.194 . S
C171 C56 1.220 . S
C173 C70 1.210 . S
C175 C28 1.240 . S
