# Generated by pormake.
# Topology dft, (4)-cn, num edge types: 1
# Building blocks:
#     Node 0, Type 0, BuildingBlock: QUQFOY_clean_sbu_1, # of connection points: 4
#     Node 1, Type 0, BuildingBlock: QUQFOY_clean_sbu_1, # of connection points: 4
#     Node 2, Type 0, BuildingBlock: QUQFOY_clean_sbu_1, # of connection points: 4
#     Node 3, Type 0, BuildingBlock: QUQFOY_clean_sbu_1, # of connection points: 4
#     Node 4, Type 0, BuildingBlock: QUQFOY_clean_sbu_1, # of connection points: 4
#     Node 5, Type 0, BuildingBlock: QUQFOY_clean_sbu_1, # of connection points: 4
#     Node 6, Type 0, BuildingBlock: QUQFOY_clean_sbu_1, # of connection points: 4
#     Node 7, Type 0, BuildingBlock: QUQFOY_clean_sbu_1, # of connection points: 4
#     Edge 8, Type (0, 0), BuildingBlock: CIFDUS_clean_linker_0, # of connection points: 2
#     Edge 9, Type (0, 0), BuildingBlock: CIFDUS_clean_linker_0, # of connection points: 2
#     Edge 10, Type (0, 0), BuildingBlock: CIFDUS_clean_linker_0, # of connection points: 2
#     Edge 11, Type (0, 0), BuildingBlock: CIFDUS_clean_linker_0, # of connection points: 2
#     Edge 12, Type (0, 0), BuildingBlock: CIFDUS_clean_linker_0, # of connection points: 2
#     Edge 13, Type (0, 0), BuildingBlock: CIFDUS_clean_linker_0, # of connection points: 2
#     Edge 14, Type (0, 0), BuildingBlock: CIFDUS_clean_linker_0, # of connection points: 2
#     Edge 15, Type (0, 0), BuildingBlock: CIFDUS_clean_linker_0, # of connection points: 2
#     Edge 16, Type (0, 0), BuildingBlock: CIFDUS_clean_linker_0, # of connection points: 2
#     Edge 17, Type (0, 0), BuildingBlock: CIFDUS_clean_linker_0, # of connection points: 2
#     Edge 18, Type (0, 0), BuildingBlock: CIFDUS_clean_linker_0, # of connection points: 2
#     Edge 19, Type (0, 0), BuildingBlock: CIFDUS_clean_linker_0, # of connection points: 2
#     Edge 20, Type (0, 0), BuildingBlock: CIFDUS_clean_linker_0, # of connection points: 2
#     Edge 21, Type (0, 0), BuildingBlock: CIFDUS_clean_linker_0, # of connection points: 2
#     Edge 22, Type (0, 0), BuildingBlock: CIFDUS_clean_linker_0, # of connection points: 2
#     Edge 23, Type (0, 0), BuildingBlock: CIFDUS_clean_linker_0, # of connection points: 2
# Relax obj value: 0.215
# Max RMSD: 0.226
# Mean RMSD: 0.226
data_MOF--net-dft--node1-QUQFOY_clean_sbu_1--edge1-CIFDUS_clean_linker_0
_symmetry_space_group_name_H-M    P1
_symmetry_Int_Tables_number       1
_symmetry_cell_setting            triclinic
loop_
_symmetry_equiv_pos_as_xyz
'x, y, z'
_cell_length_a     32.219987
_cell_length_b     32.63259
_cell_length_c     35.331382
_cell_angle_alpha  89.735006
_cell_angle_beta   90.031539
_cell_angle_gamma 90.099069
loop_
_atom_site_label
_atom_site_type_symbol
_atom_site_fract_x
_atom_site_fract_y
_atom_site_fract_z
_atom_type_partial_charge
O0 O 0.33758 0.06735 0.13156 0.0
Cd1 Cd 0.34022 0.06729 0.18974 0.0
Cd2 Cd 0.27978 0.00716 0.18082 0.0
O3 O 0.30445 0.00837 0.12676 0.0
O4 O 0.39362 0.09466 0.2026 0.0
O5 O 0.38101 0.02919 0.21467 0.0
C6 C 0.40664 0.05972 0.21496 0.0
C7 C 0.25573 0.94452 0.20485 0.0
C8 C 0.32416 0.03793 0.11157 0.0
C9 C 0.25576 0.08901 0.21537 0.0
O10 O 0.24428 0.05607 0.19933 0.0
O11 O 0.29404 0.098 0.21777 0.0
O12 O 0.23778 0.96243 0.17679 0.0
O13 O 0.28874 0.9613 0.21862 0.0
O14 O 0.99572 0.34305 0.62574 0.0
Cd15 Cd 0.98744 0.34631 0.68336 0.0
Cd16 Cd 0.04303 0.28443 0.68494 0.0
O17 O 0.05404 0.3085 0.63167 0.0
O18 O 0.97171 0.40358 0.69543 0.0
O19 O 0.03182 0.37568 0.71205 0.0
C20 C 0.00808 0.4076 0.71038 0.0
C21 C 0.10121 0.25846 0.71664 0.0
C22 C 0.02873 0.32874 0.61138 0.0
C23 C 0.95319 0.26704 0.70698 0.0
O24 O 0.98803 0.25303 0.69604 0.0
O25 O 0.94705 0.30545 0.70788 0.0
O26 O 0.08617 0.24078 0.68719 0.0
O27 O 0.08344 0.29148 0.72835 0.0
O28 O 0.70804 0.00269 0.12578 0.0
Cd29 Cd 0.70844 0.99383 0.1836 0.0
Cd30 Cd 0.77318 0.05328 0.17909 0.0
O31 O 0.75521 0.05192 0.12329 0.0
O32 O 0.65539 0.96473 0.19449 0.0
O33 O 0.66849 0.02784 0.21383 0.0
C34 C 0.64276 0.99755 0.21105 0.0
C35 C 0.79629 0.11576 0.20354 0.0
C36 C 0.72914 0.02866 0.10704 0.0
C37 C 0.79345 0.96872 0.21022 0.0
O38 O 0.80578 0.00404 0.19993 0.0
O39 O 0.75542 0.95867 0.20721 0.0
O40 O 0.81643 0.0969 0.17751 0.0
O41 O 0.76183 0.09988 0.21517 0.0
O42 O 0.0888 0.70249 0.61358 0.0
Cd43 Cd 0.08938 0.70113 0.67175 0.0
Cd44 Cd 0.03457 0.76463 0.66648 0.0
O45 O 0.03314 0.74164 0.61206 0.0
O46 O 0.10195 0.64432 0.68851 0.0
O47 O 0.04088 0.67425 0.69704 0.0
C48 C 0.06398 0.64199 0.70006 0.0
C49 C 0.97152 0.79173 0.68748 0.0
C50 C 0.0595 0.71928 0.59525 0.0
C51 C 0.12059 0.78045 0.69964 0.0
O52 O 0.08693 0.79512 0.68647 0.0
O53 O 0.12714 0.7421 0.69893 0.0
O54 O 0.99287 0.80925 0.66126 0.0
O55 O 0.9858 0.75834 0.70222 0.0
O56 O 0.34557 0.97798 0.86895 0.0
Cd57 Cd 0.35077 0.97757 0.8109 0.0
Cd58 Cd 0.29049 0.03885 0.81722 0.0
O59 O 0.31235 0.03696 0.87226 0.0
O60 O 0.40502 0.95101 0.79967 0.0
O61 O 0.392 0.01626 0.78716 0.0
C62 C 0.41802 0.98613 0.7876 0.0
C63 C 0.26684 0.10168 0.79332 0.0
C64 C 0.33119 0.00741 0.8883 0.0
C65 C 0.26724 0.95688 0.78168 0.0
O66 O 0.25573 0.99034 0.79668 0.0
O67 O 0.30534 0.94689 0.78141 0.0
O68 O 0.24793 0.08303 0.82043 0.0
O69 O 0.30061 0.0856 0.78056 0.0
O70 O 0.07138 0.34846 0.3727 0.0
Cd71 Cd 0.08233 0.35163 0.31545 0.0
Cd72 Cd 0.0226 0.29155 0.31175 0.0
O73 O 0.01365 0.31284 0.36614 0.0
O74 O 0.10585 0.40673 0.30464 0.0
O75 O 0.04396 0.38645 0.2845 0.0
C76 C 0.07163 0.41507 0.28723 0.0
C77 C 0.96257 0.26959 0.28064 0.0
C78 C 0.03857 0.33309 0.38671 0.0
C79 C 0.11147 0.27059 0.2897 0.0
O80 O 0.07527 0.2579 0.29821 0.0
O81 O 0.12043 0.30838 0.29221 0.0
O82 O 0.97752 0.24993 0.30915 0.0
O83 O 0.98148 0.30243 0.26957 0.0
O84 O 0.72808 0.05517 0.865 0.0
Cd85 Cd 0.72248 0.05997 0.807 0.0
Cd86 Cd 0.79029 0.00113 0.80974 0.0
O87 O 0.77816 0.00884 0.86634 0.0
O88 O 0.66785 0.08721 0.79863 0.0
O89 O 0.6805 0.0232 0.78189 0.0
C90 C 0.65446 0.05312 0.78487 0.0
C91 C 0.81784 0.93731 0.79292 0.0
C92 C 0.75279 0.03214 0.88325 0.0
C93 C 0.80403 0.08396 0.77121 0.0
O94 O 0.81769 0.04915 0.78149 0.0
O95 O 0.7667 0.0943 0.77802 0.0
O96 O 0.83757 0.96217 0.81452 0.0
O97 O 0.78164 0.94809 0.78091 0.0
O98 O 0.97225 0.70572 0.35899 0.0
Cd99 Cd 0.96839 0.70257 0.301 0.0
Cd100 Cd 0.02616 0.76358 0.30402 0.0
O101 O 0.03118 0.74008 0.35832 0.0
O102 O 0.94655 0.64721 0.28902 0.0
O103 O 0.01038 0.66755 0.27475 0.0
C104 C 0.98274 0.63875 0.27555 0.0
C105 C 0.0875 0.7875 0.27607 0.0
C106 C 1.00361 0.72001 0.37623 0.0
C107 C 0.93926 0.78336 0.27536 0.0
O108 O 0.97352 0.79654 0.28859 0.0
O109 O 0.93197 0.74515 0.27426 0.0
O110 O 0.07083 0.80591 0.30434 0.0
O111 O 0.06974 0.7547 0.26365 0.0
H112 H 0.32933 0.9732 0.06394 0.0
H113 H 0.3312 0.10534 0.06642 0.0
H114 H 0.3345 0.10769 -0.00267 0.0
H115 H 0.33334 0.07211 0.93613 0.0
H116 H 0.33582 0.93999 0.93374 0.0
H117 H 0.33464 0.93764 0.00289 0.0
C118 C 0.33067 0.00247 0.0493 0.0
C119 C 0.32959 0.03903 0.07012 0.0
C120 C 0.33327 0.00357 0.00965 0.0
C121 C 0.332 0.07678 0.05094 0.0
C122 C 0.33373 0.07815 0.01146 0.0
C123 C 0.33385 0.04285 0.95081 0.0
C124 C 0.33425 0.00629 0.92996 0.0
C125 C 0.33384 0.04175 0.99053 0.0
C126 C 0.33555 0.96855 0.94923 0.0
C127 C 0.3347 0.96718 0.98874 0.0
H128 H 0.97275 0.33603 0.55452 0.0
H129 H 0.10424 0.33295 0.57729 0.0
H130 H 0.11901 0.33784 0.50956 0.0
H131 H 0.09445 0.33891 0.44371 0.0
H132 H 0.963 0.33534 0.42083 0.0
H133 H 0.94819 0.33737 0.48867 0.0
C134 C 1.0046 0.3369 0.5446 0.0
C135 C 0.03737 0.33425 0.57071 0.0
C136 C 0.01282 0.33833 0.50561 0.0
C137 C 0.07852 0.3348 0.55759 0.0
C138 C 0.08698 0.33762 0.51892 0.0
C139 C 0.0626 0.33908 0.45365 0.0
C140 C 0.02985 0.33713 0.42747 0.0
C141 C 0.05437 0.33882 0.49265 0.0
C142 C 0.9887 0.33671 0.44058 0.0
C143 C 0.98022 0.33787 0.47931 0.0
H144 H 0.68799 0.02795 0.93222 0.0
H145 H 0.8211 0.03991 0.92654 0.0
H146 H 0.82515 0.04262 -0.00443 0.0
H147 H 0.79114 0.03988 0.05736 0.0
H148 H 0.6591 0.01995 0.06423 0.0
H149 H 0.65401 0.02194 -0.00508 0.0
C150 C 0.71771 0.03133 0.94631 0.0
C151 C 0.75419 0.03402 0.92472 0.0
C152 C 0.71992 0.0313 0.98604 0.0
C153 C 0.79272 0.03774 0.94289 0.0
C154 C 0.79503 0.03934 0.98223 0.0
C155 C 0.76124 0.03627 0.04361 0.0
C156 C 0.72548 0.03024 0.06556 0.0
C157 C 0.75888 0.03594 0.00405 0.0
C158 C 0.68699 0.0247 0.04765 0.0
C159 C 0.6841 0.02588 0.00814 0.0
H160 H 0.07426 0.71446 0.41762 0.0
H161 H 0.94081 0.71487 0.42734 0.0
H162 H 0.94637 0.71344 0.49634 0.0
H163 H 0.98926 0.71615 0.55376 0.0
H164 H 0.12257 0.71108 0.54448 0.0
H165 H 0.11712 0.70988 0.47532 0.0
C166 C 0.04646 0.71397 0.43493 0.0
C167 C 1.0072 0.71525 0.4176 0.0
C168 C 0.04991 0.71239 0.47452 0.0
C169 C 0.97135 0.71391 0.44015 0.0
C170 C 0.97452 0.71325 0.47955 0.0
C171 C 0.01706 0.71449 0.53652 0.0
C172 C 0.05625 0.71419 0.55395 0.0
C173 C 0.01362 0.71312 0.497 0.0
C174 C 0.09208 0.71135 0.53154 0.0
C175 C 0.08897 0.71085 0.49208 0.0
H176 H 0.44883 0.9881 0.22365 0.0
H177 H 0.4641 0.11939 0.22819 0.0
H178 H 0.53918 0.11132 0.23315 0.0
H179 H 0.60076 0.06754 0.22733 0.0
H180 H 0.5855 0.93651 0.21884 0.0
H181 H 0.51044 0.94387 0.22488 0.0
C182 C 0.46851 0.01491 0.22655 0.0
C183 C 0.45089 0.05428 0.22514 0.0
C184 C 0.51183 0.01011 0.22831 0.0
C185 C 0.47688 0.08871 0.22885 0.0
C186 C 0.51987 0.08414 0.2316 0.0
C187 C 0.58109 0.04053 0.22767 0.0
C188 C 0.59869 0.00159 0.22226 0.0
C189 C 0.53778 0.04507 0.23002 0.0
C190 C 0.57273 0.9669 0.22264 0.0
C191 C 0.52974 0.97108 0.22598 0.0
H192 H 0.96391 0.47816 0.71633 0.0
H193 H 0.08797 0.42959 0.72637 0.0
H194 H 0.11611 0.49901 0.72897 0.0
H195 H 0.10624 0.5729 0.71898 0.0
H196 H 0.98227 0.62147 0.70818 0.0
H197 H 0.95335 0.55271 0.71583 0.0
C198 C 0.99704 0.48274 0.71984 0.0
C199 C 0.02385 0.44874 0.7205 0.0
C200 C 0.01308 0.52276 0.72077 0.0
C201 C 0.06663 0.45519 0.72557 0.0
C202 C 0.0828 0.49492 0.72682 0.0
C203 C 0.07285 0.56855 0.71898 0.0
C204 C 0.04648 0.60215 0.71236 0.0
C205 C 0.05645 0.52887 0.72297 0.0
C206 C 1.00329 0.59611 0.71299 0.0
C207 C 0.98672 0.55674 0.71717 0.0
H208 H 0.61262 0.98163 0.7734 0.0
H209 H 0.5955 0.1126 0.7785 0.0
H210 H 0.52039 0.10361 0.77513 0.0
H211 H 0.45943 0.05831 0.77813 0.0
H212 H 0.47663 0.92722 0.77648 0.0
H213 H 0.55153 0.93651 0.77067 0.0
C214 C 0.5925 0.00823 0.77304 0.0
C215 C 0.6097 0.04769 0.77649 0.0
C216 C 0.54918 0.00281 0.77208 0.0
C217 C 0.58311 0.08184 0.77613 0.0
C218 C 0.54009 0.07673 0.7743 0.0
C219 C 0.47949 0.03179 0.77579 0.0
C220 C 0.46242 0.99215 0.77805 0.0
C221 C 0.52272 0.03732 0.77339 0.0
C222 C 0.48893 0.95811 0.7751 0.0
C223 C 0.53184 0.96337 0.77185 0.0
H224 H 0.99699 0.4477 0.2679 0.0
H225 H 0.12686 0.47786 0.27907 0.0
H226 H 0.11114 0.55039 0.27014 0.0
H227 H 0.05963 0.60569 0.2685 0.0
H228 H 0.92937 0.57565 0.26192 0.0
H229 H 0.94612 0.50281 0.25905 0.0
C230 C 0.02195 0.47004 0.26754 0.0
C231 C 0.06294 0.45746 0.27458 0.0
C232 C 0.01255 0.51187 0.26357 0.0
C233 C 0.09495 0.4868 0.27409 0.0
C234 C 0.08599 0.52833 0.26907 0.0
C235 C 0.03497 0.58326 0.26552 0.0
C236 C 0.99332 0.59602 0.26582 0.0
C237 C 0.04475 0.54133 0.26519 0.0
C238 C 0.96169 0.56658 0.26208 0.0
C239 C 0.97123 0.52489 0.26057 0.0
H240 H 0.10087 0.19024 0.27145 0.0
H241 H 0.19425 0.28491 0.27934 0.0
H242 H 0.24719 0.2368 0.25833 0.0
H243 H 0.26695 0.1682 0.23684 0.0
H244 H 0.17331 0.07403 0.2271 0.0
H245 H 0.12063 0.1216 0.24985 0.0
C246 C 0.13281 0.20036 0.26868 0.0
C247 C 0.14349 0.24117 0.27699 0.0
C248 C 0.16312 0.17262 0.25626 0.0
C249 C 0.18505 0.25374 0.27303 0.0
C250 C 0.21542 0.22622 0.26107 0.0
C251 C 0.23507 0.15798 0.23989 0.0
C252 C 0.22416 0.11758 0.23032 0.0
C253 C 0.2048 0.18563 0.25251 0.0
C254 C 0.18259 0.10499 0.23416 0.0
C255 C 0.15242 0.13217 0.24719 0.0
H256 H 0.95468 0.18387 0.7047 0.0
H257 H 0.87604 0.28564 0.73472 0.0
H258 H 0.82149 0.23808 0.75456 0.0
H259 H 0.79728 0.16729 0.76603 0.0
H260 H 0.87726 0.0662 0.73693 0.0
H261 H 0.92975 0.11383 0.71372 0.0
C262 C 0.92561 0.19576 0.71551 0.0
C263 C 0.91968 0.23832 0.71842 0.0
C264 C 0.89445 0.16831 0.72695 0.0
C265 C 0.88161 0.25304 0.7323 0.0
C266 C 0.85033 0.22585 0.74362 0.0
C267 C 0.82596 0.15572 0.75413 0.0
C268 C 0.83333 0.11323 0.75336 0.0
C269 C 0.85651 0.18338 0.74136 0.0
C270 C 0.87083 0.09875 0.73809 0.0
C271 C 0.90096 0.12596 0.72485 0.0
H272 H 0.94604 0.86625 0.26983 0.0
H273 H 0.86027 0.7665 0.25137 0.0
H274 H 0.80708 0.81499 0.23096 0.0
H275 H 0.78498 0.88585 0.21785 0.0
H276 H 0.87171 0.98505 0.23508 0.0
H277 H 0.9242 0.93663 0.25667 0.0
C278 C 0.91574 0.85504 0.26134 0.0
C279 C 0.90728 0.81275 0.26216 0.0
C280 C 0.88531 0.88303 0.24952 0.0
C281 C 0.86778 0.79887 0.25096 0.0
C282 C 0.83724 0.82659 0.23935 0.0
C283 C 0.81526 0.89688 0.22657 0.0
C284 C 0.82431 0.93903 0.22487 0.0
C285 C 0.84565 0.86877 0.23853 0.0
C286 C 0.86388 0.95276 0.23597 0.0
C287 C 0.89399 0.9251 0.24834 0.0
H288 H 0.11307 0.86174 0.71508 0.0
H289 H 0.20045 0.76164 0.71916 0.0
H290 H 0.2538 0.80755 0.74374 0.0
H291 H 0.27569 0.87607 0.76441 0.0
H292 H 0.18754 0.97554 0.76223 0.0
H293 H 0.13463 0.92993 0.73645 0.0
C294 C 0.14378 0.84993 0.7213 0.0
C295 C 0.15267 0.80829 0.7152 0.0
C296 C 0.17428 0.87641 0.73572 0.0
C297 C 0.19263 0.79352 0.72366 0.0
C298 C 0.22325 0.81978 0.73765 0.0
C299 C 0.24497 0.88782 0.7581 0.0
C300 C 0.23567 0.92919 0.76515 0.0
C301 C 0.21444 0.86128 0.74378 0.0
C302 C 0.19555 0.94381 0.75717 0.0
C303 C 0.16524 0.91775 0.7424 0.0
H304 H 0.82269 0.90932 0.72134 0.0
H305 H 0.86131 0.88328 0.83565 0.0
H306 H 0.90799 0.82962 0.81302 0.0
H307 H 0.94526 0.7976 0.76004 0.0
H308 H 0.91346 0.8311 0.64556 0.0
H309 H 0.85657 0.87381 0.6685 0.0
C310 C 0.84047 0.89096 0.74123 0.0
C311 C 0.83851 0.89974 0.78001 0.0
C312 C 0.86896 0.86189 0.7278 0.0
C313 C 0.86235 0.87669 0.80563 0.0
C314 C 0.88917 0.84624 0.79269 0.0
C315 C 0.92514 0.81349 0.74022 0.0
C316 C 0.93328 0.8113 0.70127 0.0
C317 C 0.89387 0.83962 0.75374 0.0
C318 C 0.90765 0.83253 0.67573 0.0
C319 C 0.87523 0.857 0.68882 0.0
H320 H 0.20852 0.88632 0.1712 0.0
H321 H 0.25728 0.9235 0.27943 0.0
H322 H 0.21162 0.87445 0.31146 0.0
H323 H 0.15109 0.82823 0.30883 0.0
H324 H 0.10448 0.78856 0.20063 0.0
H325 H 0.1564 0.83095 0.16826 0.0
C326 C 0.20975 0.88296 0.20174 0.0
C327 C 0.23574 0.90877 0.22303 0.0
C328 C 0.18354 0.85461 0.21989 0.0
C329 C 0.23753 0.9039 0.26249 0.0
C330 C 0.21119 0.87611 0.28082 0.0
C331 C 0.15295 0.82829 0.27816 0.0
C332 C 0.12379 0.80588 0.25703 0.0
C333 C 0.18304 0.85241 0.25986 0.0
C334 C 0.12667 0.80562 0.2174 0.0
C335 C 0.15615 0.83005 0.19893 0.0
H336 H 0.16683 0.2189 0.68652 0.0
H337 H 0.11289 0.25485 0.79289 0.0
H338 H 0.1631 0.21214 0.82703 0.0
H339 H 0.21634 0.1579 0.82565 0.0
H340 H 0.27244 0.12463 0.71938 0.0
H341 H 0.22796 0.17362 0.68607 0.0
C342 C 0.16666 0.21791 0.71722 0.0
C343 C 0.13602 0.2394 0.73726 0.0
C344 C 0.19584 0.1937 0.73655 0.0
C345 C 0.13627 0.23849 0.77697 0.0
C346 C 0.16479 0.2139 0.79643 0.0
C347 C 0.2194 0.16208 0.7953 0.0
C348 C 0.24719 0.13741 0.77487 0.0
C349 C 0.19384 0.1904 0.77641 0.0
C350 C 0.2513 0.14335 0.73567 0.0
C351 C 0.22563 0.17109 0.7166 0.0
H352 H 0.89584 0.23146 0.31069 0.0
H353 H 0.95004 0.2689 0.2045 0.0
H354 H 0.89905 0.22754 0.17012 0.0
H355 H 0.8459 0.17306 0.17131 0.0
H356 H 0.78984 0.1379 0.2774 0.0
H357 H 0.83416 0.18671 0.31093 0.0
C358 C 0.8958 0.23121 0.27998 0.0
C359 C 0.92681 0.25257 0.26003 0.0
C360 C 0.8663 0.20763 0.26054 0.0
C361 C 0.92636 0.25262 0.22033 0.0
C362 C 0.89742 0.22877 0.20073 0.0
C363 C 0.84276 0.17687 0.20166 0.0
C364 C 0.81518 0.15165 0.22202 0.0
C365 C 0.86825 0.20501 0.22065 0.0
C366 C 0.81088 0.15706 0.26121 0.0
C367 C 0.83645 0.18469 0.28039 0.0
loop_
_geom_bond_atom_site_label_1
_geom_bond_atom_site_label_2
_geom_bond_distance
_geom_bond_site_symmetry_2
_ccdc_geom_bond_type
O0 Cd1 2.223 . S
O0 C8 1.315 . S
Cd1 O0 2.223 . S
Cd1 O4 2.297 . S
Cd1 O5 2.457 . S
Cd1 O11 2.240 . S
Cd2 O3 2.240 1_565 S
Cd2 O10 2.223 1_565 S
Cd2 O12 2.297 . S
Cd2 O13 2.439 . S
O3 Cd2 2.240 1_545 S
O3 C8 1.279 . S
O4 Cd1 2.297 . S
O4 C6 1.247 . S
O5 Cd1 2.457 . S
O5 C6 1.218 . S
C6 O4 1.247 . S
C6 O5 1.218 . S
C7 O12 1.247 . S
C7 O13 1.208 . S
C8 O0 1.315 . S
C8 O3 1.279 . S
C9 O10 1.315 . S
C9 O11 1.279 . S
O10 Cd2 2.223 1_545 S
O10 C9 1.315 . S
O11 Cd1 2.240 . S
O11 C9 1.279 . S
O12 Cd2 2.297 . S
O12 C7 1.247 . S
O13 Cd2 2.439 . S
O13 C7 1.208 . S
O14 Cd15 2.223 . S
O14 C22 1.315 1_655 S
Cd15 O14 2.223 . S
Cd15 O18 2.297 . S
Cd15 O19 2.439 1_655 S
Cd15 O25 2.240 . S
Cd16 O17 2.240 . S
Cd16 O24 2.223 . S
Cd16 O26 2.297 . S
Cd16 O27 2.439 . S
O17 Cd16 2.240 . S
O17 C22 1.279 . S
O18 Cd15 2.297 . S
O18 C20 1.247 1_655 S
O19 Cd15 2.439 1_455 S
O19 C20 1.208 . S
C20 O18 1.247 1_455 S
C20 O19 1.208 . S
C21 O26 1.247 . S
C21 O27 1.208 . S
C22 O14 1.315 1_455 S
C22 O17 1.279 . S
C23 O24 1.315 1_655 S
C23 O25 1.279 . S
O24 Cd16 2.223 . S
O24 C23 1.315 1_455 S
O25 Cd15 2.240 . S
O25 C23 1.279 . S
O26 Cd16 2.297 . S
O26 C21 1.247 . S
O27 Cd16 2.439 . S
O27 C21 1.208 . S
O28 Cd29 2.223 . S
O28 C36 1.315 1_565 S
Cd29 O28 2.223 . S
Cd29 O32 2.297 . S
Cd29 O33 2.439 1_565 S
Cd29 O39 2.240 . S
Cd30 O31 2.240 . S
Cd30 O38 2.223 . S
Cd30 O40 2.297 . S
Cd30 O41 2.439 . S
O31 Cd30 2.240 . S
O31 C36 1.279 . S
O32 Cd29 2.297 . S
O32 C34 1.247 1_565 S
O33 Cd29 2.439 1_545 S
O33 C34 1.208 . S
C34 O32 1.247 1_545 S
C34 O33 1.208 . S
C35 O40 1.247 . S
C35 O41 1.208 . S
C36 O28 1.315 1_545 S
C36 O31 1.279 . S
C37 O38 1.315 1_565 S
C37 O39 1.279 . S
O38 Cd30 2.223 . S
O38 C37 1.315 1_545 S
O39 Cd29 2.240 . S
O39 C37 1.279 . S
O40 Cd30 2.297 . S
O40 C35 1.247 . S
O41 Cd30 2.439 . S
O41 C35 1.208 . S
O42 Cd43 2.223 . S
O42 C50 1.315 . S
Cd43 O42 2.223 . S
Cd43 O46 2.297 . S
Cd43 O47 2.458 . S
Cd43 O53 2.240 . S
Cd44 O45 2.240 1_655 S
Cd44 O52 2.223 1_655 S
Cd44 O54 2.297 . S
Cd44 O55 2.439 . S
O45 Cd44 2.240 1_455 S
O45 C50 1.279 . S
O46 Cd43 2.297 . S
O46 C48 1.247 . S
O47 Cd43 2.458 . S
O47 C48 1.219 . S
C48 O46 1.247 . S
C48 O47 1.219 . S
C49 O54 1.247 . S
C49 O55 1.208 . S
C50 O42 1.315 . S
C50 O45 1.279 . S
C51 O52 1.315 . S
C51 O53 1.279 . S
O52 Cd44 2.223 1_455 S
O52 C51 1.315 . S
O53 Cd43 2.240 . S
O53 C51 1.279 . S
O54 Cd44 2.297 . S
O54 C49 1.247 . S
O55 Cd44 2.439 . S
O55 C49 1.208 . S
O56 Cd57 2.223 . S
O56 C64 1.315 1_565 S
Cd57 O56 2.223 . S
Cd57 O60 2.297 . S
Cd57 O61 2.439 1_565 S
Cd57 O67 2.240 . S
Cd58 O59 2.240 . S
Cd58 O66 2.223 . S
Cd58 O68 2.297 . S
Cd58 O69 2.439 . S
O59 Cd58 2.240 . S
O59 C64 1.279 . S
O60 Cd57 2.297 . S
O60 C62 1.247 1_565 S
O61 Cd57 2.439 1_545 S
O61 C62 1.208 . S
C62 O60 1.247 1_545 S
C62 O61 1.208 . S
C63 O68 1.247 . S
C63 O69 1.208 . S
C64 O56 1.315 1_545 S
C64 O59 1.279 . S
C65 O66 1.315 1_565 S
C65 O67 1.279 . S
O66 Cd58 2.223 . S
O66 C65 1.315 1_545 S
O67 Cd57 2.240 . S
O67 C65 1.279 . S
O68 Cd58 2.297 . S
O68 C63 1.247 . S
O69 Cd58 2.439 . S
O69 C63 1.208 . S
O70 Cd71 2.223 . S
O70 C78 1.315 . S
Cd71 O70 2.223 . S
Cd71 O74 2.297 . S
Cd71 O75 2.457 . S
Cd71 O81 2.240 . S
Cd72 O73 2.240 1_655 S
Cd72 O80 2.223 1_655 S
Cd72 O82 2.297 . S
Cd72 O83 2.439 . S
O73 Cd72 2.240 1_455 S
O73 C78 1.279 . S
O74 Cd71 2.297 . S
O74 C76 1.247 . S
O75 Cd71 2.457 . S
O75 C76 1.218 . S
C76 O74 1.247 . S
C76 O75 1.218 . S
C77 O82 1.247 . S
C77 O83 1.208 . S
C78 O70 1.315 . S
C78 O73 1.279 . S
C79 O80 1.315 . S
C79 O81 1.279 . S
O80 Cd72 2.223 1_455 S
O80 C79 1.315 . S
O81 Cd71 2.240 . S
O81 C79 1.279 . S
O82 Cd72 2.297 . S
O82 C77 1.247 . S
O83 Cd72 2.439 . S
O83 C77 1.208 . S
O84 Cd85 2.223 . S
O84 C92 1.315 . S
Cd85 O84 2.223 . S
Cd85 O88 2.297 . S
Cd85 O89 2.458 . S
Cd85 O95 2.240 . S
Cd86 O87 2.240 1_565 S
Cd86 O94 2.223 1_565 S
Cd86 O96 2.297 . S
Cd86 O97 2.439 . S
O87 Cd86 2.240 1_545 S
O87 C92 1.279 . S
O88 Cd85 2.297 . S
O88 C90 1.247 . S
O89 Cd85 2.458 . S
O89 C90 1.219 . S
C90 O88 1.247 . S
C90 O89 1.219 . S
C91 O96 1.247 . S
C91 O97 1.208 . S
C92 O84 1.315 . S
C92 O87 1.279 . S
C93 O94 1.315 . S
C93 O95 1.279 . S
O94 Cd86 2.223 1_545 S
O94 C93 1.315 . S
O95 Cd85 2.240 . S
O95 C93 1.279 . S
O96 Cd86 2.297 . S
O96 C91 1.247 . S
O97 Cd86 2.439 . S
O97 C91 1.208 . S
O98 Cd99 2.223 . S
O98 C106 1.315 1_655 S
Cd99 O98 2.223 . S
Cd99 O102 2.297 . S
Cd99 O103 2.439 1_655 S
Cd99 O109 2.240 . S
Cd100 O101 2.240 . S
Cd100 O108 2.223 . S
Cd100 O110 2.297 . S
Cd100 O111 2.439 . S
O101 Cd100 2.240 . S
O101 C106 1.279 . S
O102 Cd99 2.297 . S
O102 C104 1.247 1_655 S
O103 Cd99 2.439 1_455 S
O103 C104 1.208 . S
C104 O102 1.247 1_455 S
C104 O103 1.208 . S
C105 O110 1.247 . S
C105 O111 1.208 . S
C106 O98 1.315 1_455 S
C106 O101 1.279 . S
C107 O108 1.315 1_655 S
C107 O109 1.279 . S
O108 Cd100 2.223 . S
O108 C107 1.315 1_455 S
O109 Cd99 2.240 . S
O109 C107 1.279 . S
O110 Cd100 2.297 . S
O110 C105 1.247 . S
O111 Cd100 2.439 . S
O111 C105 1.208 . S
H112 C118 0.930 . S
H113 C121 0.930 . S
H114 C122 0.930 . S
H115 C123 0.930 . S
H116 C126 0.938 . S
H117 C127 0.930 . S
C118 H112 0.930 . S
C118 C119 1.355 . S
C118 C120 1.415 . S
C119 C118 1.355 . S
C119 C121 1.419 . S
C120 C118 1.415 . S
C120 C125 1.425 1_554 S
C120 C127 1.409 1_554 S
C121 H113 0.930 . S
C121 C119 1.419 . S
C121 C122 1.362 . S
C122 H114 0.930 . S
C122 C121 1.362 . S
C122 C125 1.409 1_554 S
C123 H115 0.930 . S
C123 C124 1.355 . S
C123 C125 1.415 . S
C124 C123 1.355 . S
C124 C126 1.416 1_545 S
C125 C120 1.425 1_556 S
C125 C122 1.409 1_556 S
C125 C123 1.415 . S
C126 H116 0.938 . S
C126 C124 1.416 1_565 S
C126 C127 1.358 1_565 S
C127 H117 0.930 . S
C127 C120 1.409 1_556 S
C127 C126 1.358 1_545 S
H128 C134 0.930 . S
H129 C137 0.930 . S
H130 C138 0.930 . S
H131 C139 0.930 . S
H132 C142 0.930 . S
H133 C143 0.930 . S
C134 H128 0.930 . S
C134 C135 1.355 1_655 S
C134 C136 1.415 1_655 S
C135 C134 1.355 1_455 S
C135 C137 1.419 . S
C136 C134 1.415 1_455 S
C136 C141 1.425 . S
C136 C143 1.409 1_455 S
C137 H129 0.930 . S
C137 C135 1.419 . S
C137 C138 1.362 . S
C138 H130 0.930 . S
C138 C137 1.362 . S
C138 C141 1.409 . S
C139 H131 0.930 . S
C139 C140 1.355 . S
C139 C141 1.415 . S
C140 C139 1.355 . S
C140 C142 1.419 . S
C141 C136 1.425 . S
C141 C138 1.409 . S
C141 C139 1.415 . S
C142 H132 0.930 . S
C142 C140 1.419 . S
C142 C143 1.362 1_455 S
C143 H133 0.930 . S
C143 C136 1.409 1_655 S
C143 C142 1.362 1_655 S
H144 C150 0.930 . S
H145 C153 0.930 . S
H146 C154 0.930 . S
H147 C155 0.930 1_565 S
H148 C158 0.930 . S
H149 C159 0.930 . S
C150 H144 0.930 . S
C150 C151 1.355 . S
C150 C152 1.415 . S
C151 C150 1.355 . S
C151 C153 1.419 . S
C152 C150 1.415 . S
C152 C157 1.425 1_556 S
C152 C159 1.409 1_556 S
C153 H145 0.930 . S
C153 C151 1.419 . S
C153 C154 1.362 . S
C154 H146 0.930 . S
C154 C153 1.362 . S
C154 C157 1.409 1_556 S
C155 H147 0.930 1_545 S
C155 C156 1.355 . S
C155 C157 1.415 . S
C156 C155 1.355 . S
C156 C158 1.419 . S
C157 C152 1.425 1_554 S
C157 C154 1.409 1_554 S
C157 C155 1.415 . S
C158 H148 0.930 . S
C158 C156 1.419 . S
C158 C159 1.362 . S
C159 H149 0.930 . S
C159 C152 1.409 1_554 S
C159 C158 1.362 . S
H160 C166 0.930 . S
H161 C169 0.930 . S
H162 C170 0.930 . S
H163 C171 0.930 . S
H164 C174 0.930 . S
H165 C175 0.930 . S
C166 H160 0.930 . S
C166 C167 1.355 . S
C166 C168 1.415 . S
C167 C166 1.355 . S
C167 C169 1.419 1_455 S
C168 C166 1.415 . S
C168 C173 1.425 . S
C168 C175 1.409 . S
C169 H161 0.930 . S
C169 C167 1.419 1_655 S
C169 C170 1.362 . S
C170 H162 0.930 . S
C170 C169 1.362 . S
C170 C173 1.409 1_655 S
C171 H163 0.930 . S
C171 C172 1.355 . S
C171 C173 1.415 . S
C172 C171 1.355 . S
C172 C174 1.419 . S
C173 C168 1.425 . S
C173 C170 1.409 1_455 S
C173 C171 1.415 . S
C174 H164 0.930 . S
C174 C172 1.419 . S
C174 C175 1.362 . S
C175 H165 0.930 . S
C175 C168 1.409 . S
C175 C174 1.362 . S
H176 C182 0.930 . S
H177 C185 0.930 . S
H178 C186 0.930 . S
H179 C187 0.930 . S
H180 C190 0.930 . S
H181 C191 0.930 . S
C182 H176 0.930 . S
C182 C183 1.355 1_565 S
C182 C184 1.415 1_565 S
C183 C182 1.355 1_545 S
C183 C185 1.419 . S
C184 C182 1.415 1_545 S
C184 C189 1.425 . S
C184 C191 1.409 1_545 S
C185 H177 0.930 . S
C185 C183 1.419 . S
C185 C186 1.362 . S
C186 H178 0.930 . S
C186 C185 1.362 . S
C186 C189 1.409 . S
C187 H179 0.930 . S
C187 C188 1.355 . S
C187 C189 1.415 . S
C188 C187 1.355 . S
C188 C190 1.419 1_545 S
C189 C184 1.425 . S
C189 C186 1.409 . S
C189 C187 1.415 . S
C190 H180 0.930 . S
C190 C188 1.419 1_565 S
C190 C191 1.362 . S
C191 H181 0.930 . S
C191 C184 1.409 1_565 S
C191 C190 1.362 . S
H192 C198 0.930 . S
H193 C201 0.930 . S
H194 C202 0.930 . S
H195 C203 0.930 . S
H196 C206 0.930 . S
H197 C207 0.930 . S
C198 H192 0.930 . S
C198 C199 1.355 . S
C198 C200 1.415 . S
C199 C198 1.355 . S
C199 C201 1.419 . S
C200 C198 1.415 . S
C200 C205 1.425 . S
C200 C207 1.409 . S
C201 H193 0.930 . S
C201 C199 1.419 . S
C201 C202 1.362 . S
C202 H194 0.930 . S
C202 C201 1.362 . S
C202 C205 1.409 . S
C203 H195 0.930 . S
C203 C204 1.355 . S
C203 C205 1.415 . S
C204 C203 1.355 . S
C204 C206 1.419 . S
C205 C200 1.425 . S
C205 C202 1.409 . S
C205 C203 1.415 . S
C206 H196 0.930 . S
C206 C204 1.419 . S
C206 C207 1.362 . S
C207 H197 0.930 . S
C207 C200 1.409 . S
C207 C206 1.362 . S
H208 C214 0.941 . S
H209 C217 0.930 . S
H210 C218 0.930 . S
H211 C219 0.930 . S
H212 C222 0.930 . S
H213 C223 0.920 1_565 S
C214 H208 0.941 . S
C214 C215 1.349 1_565 S
C214 C216 1.409 1_565 S
C215 C214 1.349 1_545 S
C215 C217 1.419 . S
C216 C214 1.409 1_545 S
C216 C221 1.425 . S
C216 C223 1.414 . S
C217 H209 0.930 . S
C217 C215 1.419 . S
C217 C218 1.362 . S
C218 H210 0.930 . S
C218 C217 1.362 . S
C218 C221 1.409 . S
C219 H211 0.930 . S
C219 C220 1.355 . S
C219 C221 1.415 . S
C220 C219 1.355 . S
C220 C222 1.419 . S
C221 C216 1.425 . S
C221 C218 1.409 . S
C221 C219 1.415 . S
C222 H212 0.930 . S
C222 C220 1.419 . S
C222 C223 1.367 . S
C223 H213 0.920 1_545 S
C223 C216 1.414 . S
C223 C222 1.367 . S
H224 C230 0.930 . S
H225 C233 0.930 . S
H226 C234 0.930 . S
H227 C235 0.930 . S
H228 C238 0.930 . S
H229 C239 0.930 . S
C230 H224 0.930 . S
C230 C231 1.355 . S
C230 C232 1.415 . S
C231 C230 1.355 . S
C231 C233 1.419 . S
C232 C230 1.415 . S
C232 C237 1.425 . S
C232 C239 1.409 . S
C233 H225 0.930 . S
C233 C231 1.419 . S
C233 C234 1.362 . S
C234 H226 0.930 . S
C234 C233 1.362 . S
C234 C237 1.409 . S
C235 H227 0.930 . S
C235 C236 1.355 . S
C235 C237 1.415 . S
C236 C235 1.355 . S
C236 C238 1.419 . S
C237 C232 1.425 . S
C237 C234 1.409 . S
C237 C235 1.415 . S
C238 H228 0.930 . S
C238 C236 1.419 . S
C238 C239 1.362 . S
C239 H229 0.930 . S
C239 C232 1.409 . S
C239 C238 1.362 . S
H240 C246 0.930 . S
H241 C249 0.930 . S
H242 C250 0.930 . S
H243 C251 0.930 . S
H244 C254 0.930 . S
H245 C255 0.930 . S
C246 H240 0.930 . S
C246 C247 1.355 . S
C246 C248 1.415 . S
C247 C246 1.355 . S
C247 C249 1.419 . S
C248 C246 1.415 . S
C248 C253 1.425 . S
C248 C255 1.409 . S
C249 H241 0.930 . S
C249 C247 1.419 . S
C249 C250 1.362 . S
C250 H242 0.930 . S
C250 C249 1.362 . S
C250 C253 1.409 . S
C251 H243 0.930 . S
C251 C252 1.355 . S
C251 C253 1.415 . S
C252 C251 1.355 . S
C252 C254 1.419 . S
C253 C248 1.425 . S
C253 C250 1.409 . S
C253 C251 1.415 . S
C254 H244 0.930 . S
C254 C252 1.419 . S
C254 C255 1.362 . S
C255 H245 0.930 . S
C255 C248 1.409 . S
C255 C254 1.362 . S
H256 C262 0.930 . S
H257 C265 0.930 . S
H258 C266 0.930 . S
H259 C267 0.930 . S
H260 C270 0.930 . S
H261 C271 0.930 . S
C262 H256 0.930 . S
C262 C263 1.355 . S
C262 C264 1.415 . S
C263 C262 1.355 . S
C263 C265 1.419 . S
C264 C262 1.415 . S
C264 C269 1.425 . S
C264 C271 1.409 . S
C265 H257 0.930 . S
C265 C263 1.419 . S
C265 C266 1.362 . S
C266 H258 0.930 . S
C266 C265 1.362 . S
C266 C269 1.409 . S
C267 H259 0.930 . S
C267 C268 1.355 . S
C267 C269 1.415 . S
C268 C267 1.355 . S
C268 C270 1.419 . S
C269 C264 1.425 . S
C269 C266 1.409 . S
C269 C267 1.415 . S
C270 H260 0.930 . S
C270 C268 1.419 . S
C270 C271 1.362 . S
C271 H261 0.930 . S
C271 C264 1.409 . S
C271 C270 1.362 . S
H272 C278 0.930 . S
H273 C281 0.930 . S
H274 C282 0.930 . S
H275 C283 0.930 . S
H276 C286 0.930 . S
H277 C287 0.930 . S
C278 H272 0.930 . S
C278 C279 1.355 . S
C278 C280 1.415 . S
C279 C278 1.355 . S
C279 C281 1.419 . S
C280 C278 1.415 . S
C280 C285 1.425 . S
C280 C287 1.409 . S
C281 H273 0.930 . S
C281 C279 1.419 . S
C281 C282 1.362 . S
C282 H274 0.930 . S
C282 C281 1.362 . S
C282 C285 1.409 . S
C283 H275 0.930 . S
C283 C284 1.355 . S
C283 C285 1.415 . S
C284 C283 1.355 . S
C284 C286 1.419 . S
C285 C280 1.425 . S
C285 C282 1.409 . S
C285 C283 1.415 . S
C286 H276 0.930 . S
C286 C284 1.419 . S
C286 C287 1.362 . S
C287 H277 0.930 . S
C287 C280 1.409 . S
C287 C286 1.362 . S
H288 C294 0.930 . S
H289 C297 0.930 . S
H290 C298 0.930 . S
H291 C299 0.930 . S
H292 C302 0.930 . S
H293 C303 0.930 . S
C294 H288 0.930 . S
C294 C295 1.355 . S
C294 C296 1.415 . S
C295 C294 1.355 . S
C295 C297 1.419 . S
C296 C294 1.415 . S
C296 C301 1.425 . S
C296 C303 1.409 . S
C297 H289 0.930 . S
C297 C295 1.419 . S
C297 C298 1.362 . S
C298 H290 0.930 . S
C298 C297 1.362 . S
C298 C301 1.409 . S
C299 H291 0.930 . S
C299 C300 1.355 . S
C299 C301 1.415 . S
C300 C299 1.355 . S
C300 C302 1.419 . S
C301 C296 1.425 . S
C301 C298 1.409 . S
C301 C299 1.415 . S
C302 H292 0.930 . S
C302 C300 1.419 . S
C302 C303 1.362 . S
C303 H293 0.930 . S
C303 C296 1.409 . S
C303 C302 1.362 . S
H304 C310 0.930 . S
H305 C313 0.930 . S
H306 C314 0.930 . S
H307 C315 0.930 . S
H308 C318 0.930 . S
H309 C319 0.930 . S
C310 H304 0.930 . S
C310 C311 1.355 . S
C310 C312 1.415 . S
C311 C310 1.355 . S
C311 C313 1.419 . S
C312 C310 1.415 . S
C312 C317 1.425 . S
C312 C319 1.409 . S
C313 H305 0.930 . S
C313 C311 1.419 . S
C313 C314 1.362 . S
C314 H306 0.930 . S
C314 C313 1.362 . S
C314 C317 1.409 . S
C315 H307 0.930 . S
C315 C316 1.355 . S
C315 C317 1.415 . S
C316 C315 1.355 . S
C316 C318 1.419 . S
C317 C312 1.425 . S
C317 C314 1.409 . S
C317 C315 1.415 . S
C318 H308 0.930 . S
C318 C316 1.419 . S
C318 C319 1.362 . S
C319 H309 0.930 . S
C319 C312 1.409 . S
C319 C318 1.362 . S
H320 C326 0.930 . S
H321 C329 0.930 . S
H322 C330 0.930 . S
H323 C331 0.930 . S
H324 C334 0.930 . S
H325 C335 0.930 . S
C326 H320 0.930 . S
C326 C327 1.355 . S
C326 C328 1.415 . S
C327 C326 1.355 . S
C327 C329 1.419 . S
C328 C326 1.415 . S
C328 C333 1.425 . S
C328 C335 1.409 . S
C329 H321 0.930 . S
C329 C327 1.419 . S
C329 C330 1.362 . S
C330 H322 0.930 . S
C330 C329 1.362 . S
C330 C333 1.409 . S
C331 H323 0.930 . S
C331 C332 1.355 . S
C331 C333 1.415 . S
C332 C331 1.355 . S
C332 C334 1.419 . S
C333 C328 1.425 . S
C333 C330 1.409 . S
C333 C331 1.415 . S
C334 H324 0.930 . S
C334 C332 1.419 . S
C334 C335 1.362 . S
C335 H325 0.930 . S
C335 C328 1.409 . S
C335 C334 1.362 . S
H336 C342 0.930 . S
H337 C345 0.930 . S
H338 C346 0.930 . S
H339 C347 0.930 . S
H340 C350 0.930 . S
H341 C351 0.930 . S
C342 H336 0.930 . S
C342 C343 1.355 . S
C342 C344 1.415 . S
C343 C342 1.355 . S
C343 C345 1.419 . S
C344 C342 1.415 . S
C344 C349 1.425 . S
C344 C351 1.409 . S
C345 H337 0.930 . S
C345 C343 1.419 . S
C345 C346 1.362 . S
C346 H338 0.930 . S
C346 C345 1.362 . S
C346 C349 1.409 . S
C347 H339 0.930 . S
C347 C348 1.355 . S
C347 C349 1.415 . S
C348 C347 1.355 . S
C348 C350 1.419 . S
C349 C344 1.425 . S
C349 C346 1.409 . S
C349 C347 1.415 . S
C350 H340 0.930 . S
C350 C348 1.419 . S
C350 C351 1.362 . S
C351 H341 0.930 . S
C351 C344 1.409 . S
C351 C350 1.362 . S
H352 C358 0.930 . S
H353 C361 0.930 . S
H354 C362 0.930 . S
H355 C363 0.930 . S
H356 C366 0.930 . S
H357 C367 0.930 . S
C358 H352 0.930 . S
C358 C359 1.355 . S
C358 C360 1.415 . S
C359 C358 1.355 . S
C359 C361 1.419 . S
C360 C358 1.415 . S
C360 C365 1.425 . S
C360 C367 1.409 . S
C361 H353 0.930 . S
C361 C359 1.419 . S
C361 C362 1.362 . S
C362 H354 0.930 . S
C362 C361 1.362 . S
C362 C365 1.409 . S
C363 H355 0.930 . S
C363 C364 1.355 . S
C363 C365 1.415 . S
C364 C363 1.355 . S
C364 C366 1.419 . S
C365 C360 1.425 . S
C365 C362 1.409 . S
C365 C363 1.415 . S
C366 H356 0.930 . S
C366 C364 1.419 . S
C366 C367 1.362 . S
C367 H357 0.930 . S
C367 C360 1.409 . S
C367 C366 1.362 . S
C119 C8 1.755 . S
C124 C64 1.730 . S
C135 C22 1.743 . S
C140 C78 1.714 . S
C151 C92 1.750 . S
C156 C36 1.720 . S
C167 C106 1.723 . S
C172 C50 1.752 . S
C183 C6 1.262 . S
C188 C34 1.255 . S
C199 C20 1.322 . S
C204 C48 1.311 . S
C215 C90 1.291 . S
C220 C62 1.280 . S
C231 C76 1.264 . S
C236 C104 1.274 . S
C247 C79 2.030 . S
C252 C9 2.027 . S
C263 C23 2.023 . S
C268 C93 1.994 . S
C279 C107 2.030 . S
C284 C37 1.994 . S
C295 C51 2.029 . S
C300 C65 2.028 . S
C311 C91 0.960 . S
C316 C49 0.916 . S
C327 C7 1.059 . S
C332 C105 1.008 . S
C343 C21 0.922 . S
C348 C63 0.972 . S
C359 C77 1.079 . S
C364 C35 1.054 . S
