# Generated by pormake.
# Topology dft, (4)-cn, num edge types: 1
# Building blocks:
#     Node 0, Type 0, BuildingBlock: CEKHIL_clean_sbu_0, # of connection points: 4
#     Node 1, Type 0, BuildingBlock: CEKHIL_clean_sbu_0, # of connection points: 4
#     Node 2, Type 0, BuildingBlock: CEKHIL_clean_sbu_0, # of connection points: 4
#     Node 3, Type 0, BuildingBlock: CEKHIL_clean_sbu_0, # of connection points: 4
#     Node 4, Type 0, BuildingBlock: CEKHIL_clean_sbu_0, # of connection points: 4
#     Node 5, Type 0, BuildingBlock: CEKHIL_clean_sbu_0, # of connection points: 4
#     Node 6, Type 0, BuildingBlock: CEKHIL_clean_sbu_0, # of connection points: 4
#     Node 7, Type 0, BuildingBlock: CEKHIL_clean_sbu_0, # of connection points: 4
#     Edge 8, Type (0, 0), BuildingBlock: EYOCIG_clean_linker_4, # of connection points: 2
#     Edge 9, Type (0, 0), BuildingBlock: EYOCIG_clean_linker_4, # of connection points: 2
#     Edge 10, Type (0, 0), BuildingBlock: EYOCIG_clean_linker_4, # of connection points: 2
#     Edge 11, Type (0, 0), BuildingBlock: EYOCIG_clean_linker_4, # of connection points: 2
#     Edge 12, Type (0, 0), BuildingBlock: EYOCIG_clean_linker_4, # of connection points: 2
#     Edge 13, Type (0, 0), BuildingBlock: EYOCIG_clean_linker_4, # of connection points: 2
#     Edge 14, Type (0, 0), BuildingBlock: EYOCIG_clean_linker_4, # of connection points: 2
#     Edge 15, Type (0, 0), BuildingBlock: EYOCIG_clean_linker_4, # of connection points: 2
#     Edge 16, Type (0, 0), BuildingBlock: EYOCIG_clean_linker_4, # of connection points: 2
#     Edge 17, Type (0, 0), BuildingBlock: EYOCIG_clean_linker_4, # of connection points: 2
#     Edge 18, Type (0, 0), BuildingBlock: EYOCIG_clean_linker_4, # of connection points: 2
#     Edge 19, Type (0, 0), BuildingBlock: EYOCIG_clean_linker_4, # of connection points: 2
#     Edge 20, Type (0, 0), BuildingBlock: EYOCIG_clean_linker_4, # of connection points: 2
#     Edge 21, Type (0, 0), BuildingBlock: EYOCIG_clean_linker_4, # of connection points: 2
#     Edge 22, Type (0, 0), BuildingBlock: EYOCIG_clean_linker_4, # of connection points: 2
#     Edge 23, Type (0, 0), BuildingBlock: EYOCIG_clean_linker_4, # of connection points: 2
# Relax obj value: 0.181
# Max RMSD: 0.171
# Mean RMSD: 0.171
data_MOF--net-dft--node1-CEKHIL_clean_sbu_0--edge1-EYOCIG_clean_linker_4
_symmetry_space_group_name_H-M    P1
_symmetry_Int_Tables_number       1
_symmetry_cell_setting            triclinic
loop_
_symmetry_equiv_pos_as_xyz
'x, y, z'
_cell_length_a     26.748609
_cell_length_b     26.746333
_cell_length_c     32.202798
_cell_angle_alpha  89.995358
_cell_angle_beta   90.002752
_cell_angle_gamma 90.060776
loop_
_atom_site_label
_atom_site_type_symbol
_atom_site_fract_x
_atom_site_fract_y
_atom_site_fract_z
_atom_type_partial_charge
Co0 Co 0.35617 0.04497 0.18591 0.0
O1 O 0.41865 0.00983 0.17904 0.0
O2 O 0.41075 0.08752 0.20256 0.0
C3 C 0.31418 0.98201 0.21586 0.0
O4 O 0.29959 0.09351 0.1997 0.0
Co5 Co 0.25699 0.01116 0.14374 0.0
O6 O 0.22523 0.0622 0.17975 0.0
C7 C 0.34013 0.05138 0.09379 0.0
C8 C 0.43964 0.05051 0.19254 0.0
C9 C 0.25155 0.09479 0.19846 0.0
O10 O 0.36134 0.06906 0.12655 0.0
O11 O 0.30107 0.02385 0.09454 0.0
O12 O 0.34345 0.00988 0.23837 0.0
O13 O 0.31405 0.99056 0.17661 0.0
Co14 Co 0.08254 0.35614 0.68595 0.0
O15 O 0.11774 0.41869 0.67917 0.0
O16 O 0.03996 0.41069 0.70246 0.0
C17 C 0.14535 0.31421 0.71609 0.0
O18 O 0.03393 0.29943 0.69958 0.0
Co19 Co 0.11653 0.25709 0.64378 0.0
O20 O 0.06525 0.22517 0.67952 0.0
C21 C 0.07653 0.34023 0.59381 0.0
C22 C 0.07701 0.43965 0.6925 0.0
C23 C 0.0326 0.25138 0.69821 0.0
O24 O 0.05869 0.36131 0.62654 0.0
O25 O 0.10409 0.30125 0.59458 0.0
O26 O 0.11742 0.34345 0.73852 0.0
O27 O 0.13698 0.31412 0.67681 0.0
Co28 Co 0.77174 0.08232 0.18568 0.0
O29 O 0.70928 0.11762 0.17933 0.0
O30 O 0.71719 0.03964 0.20217 0.0
C31 C 0.81401 0.14483 0.216 0.0
O32 O 0.82835 0.03356 0.19886 0.0
Co33 Co 0.87067 0.11655 0.14334 0.0
O34 O 0.9026 0.06505 0.1788 0.0
C35 C 0.78723 0.07691 0.09344 0.0
C36 C 0.6883 0.07679 0.19254 0.0
C37 C 0.87638 0.03226 0.19739 0.0
O38 O 0.76621 0.05892 0.12616 0.0
O39 O 0.82631 0.1044 0.09421 0.0
O40 O 0.7848 0.11675 0.23839 0.0
O41 O 0.81388 0.13678 0.17668 0.0
Co42 Co 0.04463 0.77182 0.68551 0.0
O43 O 0.00963 0.70915 0.67874 0.0
O44 O 0.08746 0.7174 0.70186 0.0
C45 C 0.98178 0.81346 0.71587 0.0
O46 O 0.09308 0.82866 0.69914 0.0
Co47 Co 0.01018 0.87089 0.64363 0.0
O48 O 0.06134 0.90288 0.67945 0.0
C49 C 0.05041 0.78812 0.59336 0.0
C50 C 0.05046 0.68833 0.69201 0.0
C51 C 0.09417 0.87672 0.69797 0.0
O52 O 0.0683 0.76691 0.62602 0.0
O53 O 0.02277 0.82705 0.59426 0.0
O54 O 0.0099 0.78426 0.73818 0.0
O55 O 0.99001 0.81369 0.67657 0.0
Co56 Co 0.35564 0.0829 0.8041 0.0
O57 O 0.4183 0.11793 0.81079 0.0
O58 O 0.41004 0.04008 0.78771 0.0
C59 C 0.31389 0.14571 0.7738 0.0
O60 O 0.29881 0.03439 0.79056 0.0
Co61 Co 0.25664 0.11727 0.84612 0.0
O62 O 0.22461 0.06608 0.81035 0.0
C63 C 0.33966 0.07732 0.89626 0.0
C64 C 0.43912 0.07708 0.79754 0.0
C65 C 0.25076 0.03327 0.79179 0.0
O66 O 0.3607 0.05927 0.86359 0.0
O67 O 0.30072 0.10495 0.89539 0.0
O68 O 0.34307 0.11761 0.75145 0.0
O69 O 0.31376 0.13748 0.8131 0.0
Co70 Co 0.04522 0.35568 0.30416 0.0
O71 O 0.00998 0.41816 0.31063 0.0
O72 O 0.08792 0.41022 0.2877 0.0
C73 C 0.98265 0.3135 0.27385 0.0
O74 O 0.09391 0.29905 0.29088 0.0
Co75 Co 0.01099 0.25669 0.34642 0.0
O76 O 0.06239 0.22478 0.31086 0.0
C77 C 0.0507 0.34004 0.39637 0.0
C78 C 0.05081 0.43913 0.29741 0.0
C79 C 0.09517 0.25101 0.29228 0.0
O80 O 0.0687 0.36108 0.36367 0.0
O81 O 0.02317 0.30098 0.39559 0.0
O82 O 0.01071 0.34274 0.25148 0.0
O83 O 0.99074 0.31356 0.31317 0.0
Co84 Co 0.77122 0.04464 0.80389 0.0
O85 O 0.70865 0.00947 0.81069 0.0
O86 O 0.71671 0.08722 0.78732 0.0
C87 C 0.81316 0.98178 0.77384 0.0
O88 O 0.82794 0.09323 0.79024 0.0
Co89 Co 0.87025 0.01072 0.84614 0.0
O90 O 0.90218 0.06197 0.81037 0.0
C91 C 0.78711 0.05082 0.89604 0.0
C92 C 0.68773 0.0502 0.7973 0.0
C93 C 0.87598 0.09459 0.79163 0.0
O94 O 0.76603 0.06859 0.86328 0.0
O95 O 0.8261 0.02327 0.89532 0.0
O96 O 0.78393 0.00969 0.75138 0.0
O97 O 0.81324 0.99021 0.81311 0.0
Co98 Co 0.08279 0.77131 0.30354 0.0
O99 O 0.11798 0.70886 0.31047 0.0
O100 O 0.04014 0.71665 0.28726 0.0
C101 C 0.14555 0.81316 0.27316 0.0
O102 O 0.03417 0.82783 0.28976 0.0
Co103 Co 0.11688 0.87069 0.34522 0.0
O104 O 0.06567 0.90228 0.30927 0.0
C105 C 0.07688 0.78784 0.39564 0.0
C106 C 0.07722 0.6878 0.29721 0.0
C107 C 0.03293 0.87588 0.29081 0.0
O108 O 0.05907 0.76644 0.36302 0.0
O109 O 0.1044 0.82691 0.39466 0.0
O110 O 0.11755 0.78377 0.25088 0.0
O111 O 0.13725 0.81347 0.31245 0.0
C112 C 0.36966 0.06438 0.01695 0.0
C113 C 0.36073 0.06175 0.05358 0.0
C114 C 0.36947 0.06478 0.97311 0.0
C115 C 0.3603 0.06724 0.93651 0.0
C116 C 0.06368 0.36998 0.51701 0.0
C117 C 0.06627 0.36089 0.55361 0.0
C118 C 0.06327 0.36995 0.47317 0.0
C119 C 0.0608 0.36078 0.43658 0.0
C120 C 0.75732 0.06382 0.97281 0.0
C121 C 0.76643 0.06115 0.93622 0.0
C122 C 0.75732 0.0643 0.01665 0.0
C123 C 0.76647 0.06679 0.05324 0.0
C124 C 0.06398 0.75862 0.47261 0.0
C125 C 0.06663 0.7675 0.43597 0.0
C126 C 0.0634 0.75871 0.51646 0.0
C127 C 0.06071 0.7677 0.55307 0.0
C128 C 0.53778 0.06042 0.19587 0.0
C129 C 0.49302 0.0555 0.19423 0.0
C130 C 0.59017 0.06687 0.19589 0.0
C131 C 0.63492 0.07179 0.19424 0.0
C132 C 0.06706 0.53781 0.69547 0.0
C133 C 0.07199 0.49304 0.694 0.0
C134 C 0.06058 0.5902 0.69534 0.0
C135 C 0.05558 0.63495 0.69371 0.0
C136 C 0.5896 0.06027 0.79424 0.0
C137 C 0.63435 0.05526 0.79576 0.0
C138 C 0.53722 0.06685 0.79431 0.0
C139 C 0.49248 0.07193 0.7959 0.0
C140 C 0.06081 0.53726 0.29413 0.0
C141 C 0.05584 0.49251 0.29575 0.0
C142 C 0.06729 0.58965 0.29411 0.0
C143 C 0.07224 0.63442 0.29565 0.0
C144 C 0.16689 0.19988 0.25518 0.0
C145 C 0.13514 0.22518 0.27153 0.0
C146 C 0.20053 0.1663 0.23596 0.0
C147 C 0.22581 0.13466 0.21944 0.0
C148 C 0.9609 0.20006 0.73535 0.0
C149 C 0.99263 0.22548 0.719 0.0
C150 C 0.92722 0.16632 0.75445 0.0
C151 C 0.90185 0.13457 0.77082 0.0
C152 C 0.96122 0.92679 0.25346 0.0
C153 C 0.99294 0.90154 0.26992 0.0
C154 C 0.92757 0.96044 0.23433 0.0
C155 C 0.90223 0.99223 0.21806 0.0
C156 C 0.16574 0.92806 0.73526 0.0
C157 C 0.13407 0.90266 0.71882 0.0
C158 C 0.1994 0.96171 0.7545 0.0
C159 C 0.2248 0.99338 0.77094 0.0
C160 C 0.87678 0.9136 0.74852 0.0
C161 C 0.84653 0.94537 0.75679 0.0
C162 C 0.91357 0.87687 0.74148 0.0
C163 C 0.94538 0.84669 0.73312 0.0
C164 C 0.25056 0.9136 0.24092 0.0
C165 C 0.28083 0.94547 0.23283 0.0
C166 C 0.21376 0.87674 0.24771 0.0
C167 C 0.18195 0.84645 0.25593 0.0
C168 C 0.21356 0.25063 0.7414 0.0
C169 C 0.18177 0.28087 0.73317 0.0
C170 C 0.25035 0.21386 0.74833 0.0
C171 C 0.28058 0.18207 0.7566 0.0
C172 C 0.91469 0.24961 0.2484 0.0
C173 C 0.9464 0.27999 0.25668 0.0
C174 C 0.8779 0.21279 0.24144 0.0
C175 C 0.84753 0.18108 0.23317 0.0
loop_
_geom_bond_atom_site_label_1
_geom_bond_atom_site_label_2
_geom_bond_distance
_geom_bond_site_symmetry_2
_ccdc_geom_bond_type
Co0 O1 2.216 1_545 S
Co0 O2 2.091 . S
Co0 O4 2.004 . S
Co0 O10 2.021 . S
Co0 O12 2.137 1_545 S
Co0 O13 2.244 1_545 S
O1 Co0 2.216 1_565 S
O1 C8 1.247 1_565 S
O2 Co0 2.091 . S
O2 C8 1.261 . S
C3 O12 1.247 . S
C3 O13 1.272 . S
O4 Co0 2.004 . S
O4 C9 1.259 . S
Co5 O6 2.061 . S
Co5 O11 2.052 . S
Co5 O13 2.135 1_545 S
O6 Co5 2.061 . S
O6 C9 1.235 . S
C7 O10 1.238 . S
C7 O11 1.241 . S
C8 O1 1.247 1_545 S
C8 O2 1.261 . S
C9 O4 1.259 . S
C9 O6 1.235 . S
O10 Co0 2.021 . S
O10 C7 1.238 . S
O11 Co5 2.052 . S
O11 C7 1.241 . S
O12 Co0 2.137 1_565 S
O12 C3 1.247 . S
O13 Co0 2.244 1_565 S
O13 C3 1.272 . S
O13 Co5 2.135 1_565 S
Co14 O15 2.216 . S
Co14 O16 2.091 . S
Co14 O18 2.004 . S
Co14 O24 2.021 . S
Co14 O26 2.137 . S
Co14 O27 2.244 . S
O15 Co14 2.216 . S
O15 C22 1.247 . S
O16 Co14 2.091 . S
O16 C22 1.261 . S
C17 O26 1.247 . S
C17 O27 1.272 . S
O18 Co14 2.004 . S
O18 C23 1.259 . S
Co19 O20 2.061 . S
Co19 O25 2.052 . S
Co19 O27 2.135 . S
O20 Co19 2.061 . S
O20 C23 1.235 . S
C21 O24 1.238 . S
C21 O25 1.241 . S
C22 O15 1.247 . S
C22 O16 1.261 . S
C23 O18 1.259 . S
C23 O20 1.235 . S
O24 Co14 2.021 . S
O24 C21 1.238 . S
O25 Co19 2.052 . S
O25 C21 1.241 . S
O26 Co14 2.137 . S
O26 C17 1.247 . S
O27 Co14 2.244 . S
O27 C17 1.272 . S
O27 Co19 2.135 . S
Co28 O29 2.216 . S
Co28 O30 2.091 . S
Co28 O32 2.004 . S
Co28 O38 2.021 . S
Co28 O40 2.137 . S
Co28 O41 2.244 . S
O29 Co28 2.216 . S
O29 C36 1.247 . S
O30 Co28 2.091 . S
O30 C36 1.261 . S
C31 O40 1.247 . S
C31 O41 1.272 . S
O32 Co28 2.004 . S
O32 C37 1.259 . S
Co33 O34 2.061 . S
Co33 O39 2.052 . S
Co33 O41 2.135 . S
O34 Co33 2.061 . S
O34 C37 1.235 . S
C35 O38 1.238 . S
C35 O39 1.241 . S
C36 O29 1.247 . S
C36 O30 1.261 . S
C37 O32 1.259 . S
C37 O34 1.235 . S
O38 Co28 2.021 . S
O38 C35 1.238 . S
O39 Co33 2.052 . S
O39 C35 1.241 . S
O40 Co28 2.137 . S
O40 C31 1.247 . S
O41 Co28 2.244 . S
O41 C31 1.272 . S
O41 Co33 2.135 . S
Co42 O43 2.216 1_455 S
Co42 O44 2.091 . S
Co42 O46 2.004 . S
Co42 O52 2.021 . S
Co42 O54 2.137 1_455 S
Co42 O55 2.244 1_455 S
O43 Co42 2.216 1_655 S
O43 C50 1.247 1_655 S
O44 Co42 2.091 . S
O44 C50 1.261 . S
C45 O54 1.247 . S
C45 O55 1.272 . S
O46 Co42 2.004 . S
O46 C51 1.259 . S
Co47 O48 2.061 . S
Co47 O53 2.052 . S
Co47 O55 2.135 1_455 S
O48 Co47 2.061 . S
O48 C51 1.235 . S
C49 O52 1.238 . S
C49 O53 1.241 . S
C50 O43 1.247 1_455 S
C50 O44 1.261 . S
C51 O46 1.259 . S
C51 O48 1.235 . S
O52 Co42 2.021 . S
O52 C49 1.238 . S
O53 Co47 2.052 . S
O53 C49 1.241 . S
O54 Co42 2.137 1_655 S
O54 C45 1.247 . S
O55 Co42 2.244 1_655 S
O55 C45 1.272 . S
O55 Co47 2.135 1_655 S
Co56 O57 2.216 . S
Co56 O58 2.091 . S
Co56 O60 2.004 . S
Co56 O66 2.021 . S
Co56 O68 2.137 . S
Co56 O69 2.244 . S
O57 Co56 2.216 . S
O57 C64 1.247 . S
O58 Co56 2.091 . S
O58 C64 1.261 . S
C59 O68 1.247 . S
C59 O69 1.272 . S
O60 Co56 2.004 . S
O60 C65 1.259 . S
Co61 O62 2.061 . S
Co61 O67 2.052 . S
Co61 O69 2.135 . S
O62 Co61 2.061 . S
O62 C65 1.235 . S
C63 O66 1.238 . S
C63 O67 1.241 . S
C64 O57 1.247 . S
C64 O58 1.261 . S
C65 O60 1.259 . S
C65 O62 1.235 . S
O66 Co56 2.021 . S
O66 C63 1.238 . S
O67 Co61 2.052 . S
O67 C63 1.241 . S
O68 Co56 2.137 . S
O68 C59 1.247 . S
O69 Co56 2.244 . S
O69 C59 1.272 . S
O69 Co61 2.135 . S
Co70 O71 2.216 1_455 S
Co70 O72 2.091 . S
Co70 O74 2.004 . S
Co70 O80 2.021 . S
Co70 O82 2.137 1_455 S
Co70 O83 2.244 1_455 S
O71 Co70 2.216 1_655 S
O71 C78 1.247 1_655 S
O72 Co70 2.091 . S
O72 C78 1.261 . S
C73 O82 1.247 . S
C73 O83 1.272 . S
O74 Co70 2.004 . S
O74 C79 1.259 . S
Co75 O76 2.061 . S
Co75 O81 2.052 . S
Co75 O83 2.135 1_455 S
O76 Co75 2.061 . S
O76 C79 1.235 . S
C77 O80 1.238 . S
C77 O81 1.241 . S
C78 O71 1.247 1_455 S
C78 O72 1.261 . S
C79 O74 1.259 . S
C79 O76 1.235 . S
O80 Co70 2.021 . S
O80 C77 1.238 . S
O81 Co75 2.052 . S
O81 C77 1.241 . S
O82 Co70 2.137 1_655 S
O82 C73 1.247 . S
O83 Co70 2.244 1_655 S
O83 C73 1.272 . S
O83 Co75 2.135 1_655 S
Co84 O85 2.216 1_545 S
Co84 O86 2.091 . S
Co84 O88 2.004 . S
Co84 O94 2.021 . S
Co84 O96 2.137 1_545 S
Co84 O97 2.244 1_545 S
O85 Co84 2.216 1_565 S
O85 C92 1.247 1_565 S
O86 Co84 2.091 . S
O86 C92 1.261 . S
C87 O96 1.247 . S
C87 O97 1.272 . S
O88 Co84 2.004 . S
O88 C93 1.259 . S
Co89 O90 2.061 . S
Co89 O95 2.052 . S
Co89 O97 2.135 1_545 S
O90 Co89 2.061 . S
O90 C93 1.235 . S
C91 O94 1.238 . S
C91 O95 1.241 . S
C92 O85 1.247 1_545 S
C92 O86 1.261 . S
C93 O88 1.259 . S
C93 O90 1.235 . S
O94 Co84 2.021 . S
O94 C91 1.238 . S
O95 Co89 2.052 . S
O95 C91 1.241 . S
O96 Co84 2.137 1_565 S
O96 C87 1.247 . S
O97 Co84 2.244 1_565 S
O97 C87 1.272 . S
O97 Co89 2.135 1_565 S
Co98 O99 2.216 . S
Co98 O100 2.091 . S
Co98 O102 2.004 . S
Co98 O108 2.021 . S
Co98 O110 2.137 . S
Co98 O111 2.244 . S
O99 Co98 2.216 . S
O99 C106 1.247 . S
O100 Co98 2.091 . S
O100 C106 1.261 . S
C101 O110 1.247 . S
C101 O111 1.272 . S
O102 Co98 2.004 . S
O102 C107 1.259 . S
Co103 O104 2.061 . S
Co103 O109 2.052 . S
Co103 O111 2.135 . S
O104 Co103 2.061 . S
O104 C107 1.235 . S
C105 O108 1.238 . S
C105 O109 1.241 . S
C106 O99 1.247 . S
C106 O100 1.261 . S
C107 O102 1.259 . S
C107 O104 1.235 . S
O108 Co98 2.021 . S
O108 C105 1.238 . S
O109 Co103 2.052 . S
O109 C105 1.241 . S
O110 Co98 2.137 . S
O110 C101 1.247 . S
O111 Co98 2.244 . S
O111 C101 1.272 . S
O111 Co103 2.135 . S
C112 C113 1.170 . S
C112 C114 1.380 1_554 S
C113 C112 1.170 . S
C114 C112 1.380 1_556 S
C114 C115 1.170 . S
C115 C114 1.170 . S
C116 C117 1.170 . S
C116 C118 1.380 . S
C117 C116 1.170 . S
C118 C116 1.380 . S
C118 C119 1.170 . S
C119 C118 1.170 . S
C120 C121 1.170 . S
C120 C122 1.380 1_556 S
C121 C120 1.170 . S
C122 C120 1.380 1_554 S
C122 C123 1.170 . S
C123 C122 1.170 . S
C124 C125 1.170 . S
C124 C126 1.380 . S
C125 C124 1.170 . S
C126 C124 1.380 . S
C126 C127 1.170 . S
C127 C126 1.170 . S
C128 C129 1.170 . S
C128 C130 1.380 . S
C129 C128 1.170 . S
C130 C128 1.380 . S
C130 C131 1.170 . S
C131 C130 1.170 . S
C132 C133 1.170 . S
C132 C134 1.380 . S
C133 C132 1.170 . S
C134 C132 1.380 . S
C134 C135 1.170 . S
C135 C134 1.170 . S
C136 C137 1.170 . S
C136 C138 1.380 . S
C137 C136 1.170 . S
C138 C136 1.380 . S
C138 C139 1.170 . S
C139 C138 1.170 . S
C140 C141 1.170 . S
C140 C142 1.380 . S
C141 C140 1.170 . S
C142 C140 1.380 . S
C142 C143 1.170 . S
C143 C142 1.170 . S
C144 C145 1.170 . S
C144 C146 1.380 . S
C145 C144 1.170 . S
C146 C144 1.380 . S
C146 C147 1.170 . S
C147 C146 1.170 . S
C148 C149 1.170 . S
C148 C150 1.380 . S
C149 C148 1.170 . S
C150 C148 1.380 . S
C150 C151 1.170 . S
C151 C150 1.170 . S
C152 C153 1.170 . S
C152 C154 1.380 . S
C153 C152 1.170 . S
C154 C152 1.380 . S
C154 C155 1.170 . S
C155 C154 1.170 . S
C156 C157 1.170 . S
C156 C158 1.380 . S
C157 C156 1.170 . S
C158 C156 1.380 . S
C158 C159 1.170 . S
C159 C158 1.170 . S
C160 C161 1.170 . S
C160 C162 1.380 . S
C161 C160 1.170 . S
C162 C160 1.380 . S
C162 C163 1.170 . S
C163 C162 1.170 . S
C164 C165 1.170 . S
C164 C166 1.380 . S
C165 C164 1.170 . S
C166 C164 1.380 . S
C166 C167 1.170 . S
C167 C166 1.170 . S
C168 C169 1.170 . S
C168 C170 1.380 . S
C169 C168 1.170 . S
C170 C168 1.380 . S
C170 C171 1.170 . S
C171 C170 1.170 . S
C172 C173 1.170 . S
C172 C174 1.380 . S
C173 C172 1.170 . S
C174 C172 1.380 . S
C174 C175 1.170 . S
C175 C174 1.170 . S
C113 C7 1.529 . S
C115 C63 1.515 . S
C117 C21 1.545 . S
C119 C77 1.522 . S
C121 C91 1.545 . S
C123 C35 1.532 . S
C125 C105 1.517 . S
C127 C49 1.523 . S
C129 C8 1.409 . S
C131 C36 1.411 . S
C133 C22 1.408 . S
C135 C50 1.383 . S
C137 C92 1.409 . S
C139 C64 1.383 . S
C141 C78 1.390 . S
C143 C106 1.421 . S
C145 C79 1.482 . S
C147 C9 1.484 . S
C149 C23 1.462 1_655 S
C151 C93 1.463 . S
C153 C107 1.481 1_655 S
C155 C37 1.478 1_565 S
C157 C51 1.462 . S
C159 C65 1.464 1_565 S
C161 C87 1.316 . S
C163 C45 1.310 . S
C165 C3 1.302 . S
C167 C101 1.314 . S
C169 C17 1.311 . S
C171 C59 1.297 . S
C173 C73 1.285 . S
C175 C31 1.291 . S
