# Generated by pormake.
# Topology dft, (4)-cn, num edge types: 1
# Building blocks:
#     Node 0, Type 0, BuildingBlock: NAHDIM_clean_sbu_0, # of connection points: 4
#     Node 1, Type 0, BuildingBlock: NAHDIM_clean_sbu_0, # of connection points: 4
#     Node 2, Type 0, BuildingBlock: NAHDIM_clean_sbu_0, # of connection points: 4
#     Node 3, Type 0, BuildingBlock: NAHDIM_clean_sbu_0, # of connection points: 4
#     Node 4, Type 0, BuildingBlock: NAHDIM_clean_sbu_0, # of connection points: 4
#     Node 5, Type 0, BuildingBlock: NAHDIM_clean_sbu_0, # of connection points: 4
#     Node 6, Type 0, BuildingBlock: NAHDIM_clean_sbu_0, # of connection points: 4
#     Node 7, Type 0, BuildingBlock: NAHDIM_clean_sbu_0, # of connection points: 4
#     Edge 8, Type (0, 0), BuildingBlock: XIVTED_clean_linker_0, # of connection points: 2
#     Edge 9, Type (0, 0), BuildingBlock: XIVTED_clean_linker_0, # of connection points: 2
#     Edge 10, Type (0, 0), BuildingBlock: XIVTED_clean_linker_0, # of connection points: 2
#     Edge 11, Type (0, 0), BuildingBlock: XIVTED_clean_linker_0, # of connection points: 2
#     Edge 12, Type (0, 0), BuildingBlock: XIVTED_clean_linker_0, # of connection points: 2
#     Edge 13, Type (0, 0), BuildingBlock: XIVTED_clean_linker_0, # of connection points: 2
#     Edge 14, Type (0, 0), BuildingBlock: XIVTED_clean_linker_0, # of connection points: 2
#     Edge 15, Type (0, 0), BuildingBlock: XIVTED_clean_linker_0, # of connection points: 2
#     Edge 16, Type (0, 0), BuildingBlock: XIVTED_clean_linker_0, # of connection points: 2
#     Edge 17, Type (0, 0), BuildingBlock: XIVTED_clean_linker_0, # of connection points: 2
#     Edge 18, Type (0, 0), BuildingBlock: XIVTED_clean_linker_0, # of connection points: 2
#     Edge 19, Type (0, 0), BuildingBlock: XIVTED_clean_linker_0, # of connection points: 2
#     Edge 20, Type (0, 0), BuildingBlock: XIVTED_clean_linker_0, # of connection points: 2
#     Edge 21, Type (0, 0), BuildingBlock: XIVTED_clean_linker_0, # of connection points: 2
#     Edge 22, Type (0, 0), BuildingBlock: XIVTED_clean_linker_0, # of connection points: 2
#     Edge 23, Type (0, 0), BuildingBlock: XIVTED_clean_linker_0, # of connection points: 2
# Relax obj value: 0.139
# Max RMSD: 0.138
# Mean RMSD: 0.138
data_MOF--net-dft--node1-NAHDIM_clean_sbu_0--edge1-XIVTED_clean_linker_0
_symmetry_space_group_name_H-M    P1
_symmetry_Int_Tables_number       1
_symmetry_cell_setting            triclinic
loop_
_symmetry_equiv_pos_as_xyz
'x, y, z'
_cell_length_a     35.217346
_cell_length_b     35.132762
_cell_length_c     38.814966
_cell_angle_alpha  90.111255
_cell_angle_beta   90.158921
_cell_angle_gamma 90.153148
loop_
_atom_site_label
_atom_site_type_symbol
_atom_site_fract_x
_atom_site_fract_y
_atom_site_fract_z
_atom_type_partial_charge
C0 C 0.37336 0.00728 0.22913 0.0
O1 O 0.36035 0.04183 0.22402 0.0
O2 O 0.27898 0.03658 0.22381 0.0
Zn3 Zn 0.30109 0.98983 0.20185 0.0
O4 O 0.30705 -0.00314 0.15075 0.0
C5 C 0.23287 0.94979 0.19425 0.0
O6 O 0.22566 0.98087 0.17665 0.0
O7 O 0.35214 0.97899 0.22217 0.0
C8 C 0.3076 0.96757 0.13148 0.0
O9 O 0.3057 0.93364 0.14556 0.0
C10 C 0.2649 0.06366 0.20635 0.0
O11 O 0.26506 0.06166 0.17256 0.0
O12 O 0.26488 0.94652 0.20912 0.0
C13 C 0.97393 0.40504 0.72637 0.0
O14 O 0.94675 0.38472 0.71208 0.0
O15 O 0.96048 0.30392 0.74633 0.0
Zn16 Zn 0.00748 0.3319 0.73071 0.0
O17 O 0.01522 0.32274 0.6802 0.0
C18 C 0.05076 0.29472 0.78428 0.0
O19 O 0.0181 0.29448 0.80055 0.0
O20 O 0.00312 0.3882 0.73802 0.0
C21 C 0.02327 0.28968 0.66914 0.0
O22 O 0.0265 0.26153 0.6912 0.0
C23 C 0.93518 0.29286 0.72509 0.0
O24 O 0.93863 0.30151 0.69235 0.0
O25 O 0.05299 0.31061 0.75499 0.0
C26 C 0.65093 0.97157 0.2241 0.0
O27 O 0.66583 0.93734 0.2244 0.0
O28 O 0.74495 0.94309 0.20841 0.0
Zn29 Zn 0.72249 0.99284 0.19329 0.0
O30 O 0.72085 -0.00466 0.14167 0.0
C31 C 0.76464 0.03889 0.2415 0.0
O32 O 0.75145 0.01435 0.26402 0.0
O33 O 0.67009 -0.00073 0.21225 0.0
C34 C 0.75203 -0.00439 0.12529 0.0
O35 O 0.78408 -0.00595 0.14264 0.0
C36 C 0.74483 0.9138 0.18914 0.0
O37 O 0.72919 0.91561 0.15843 0.0
O38 O 0.75561 0.03532 0.20998 0.0
C39 C 0.98684 0.67993 0.66605 0.0
O40 O 0.95936 0.69608 0.64843 0.0
O41 O 0.07045 0.77527 0.66674 0.0
Zn42 Zn 0.02399 0.7489 0.64801 0.0
O43 O 0.02772 0.74247 0.59664 0.0
C44 C 0.96488 0.78201 0.68929 0.0
O45 O 0.98131 0.76227 0.71385 0.0
O46 O 0.01819 0.69748 0.66966 0.0
C47 C 0.01548 0.76808 0.5764 0.0
O48 O 0.00101 0.79938 0.58939 0.0
C49 C 0.07327 0.81105 0.6628 0.0
O50 O 0.04628 0.82918 0.6462 0.0
O51 O 0.97814 0.78047 0.65895 0.0
C52 C 0.36846 0.02682 0.7723 0.0
O53 O 0.35155 -0.00432 0.76141 0.0
O54 O 0.26869 0.00258 0.78303 0.0
Zn55 Zn 0.29859 0.04038 0.81135 0.0
O56 O 0.30459 0.02386 0.86076 0.0
C57 C 0.24213 0.09473 0.8311 0.0
O58 O 0.23305 0.06756 0.85277 0.0
O59 O 0.35088 0.04936 0.79228 0.0
C60 C 0.28368 -1e-05 0.87639 0.0
O61 O 0.25553 0.98342 0.85988 0.0
C62 C 0.27213 0.96656 0.78309 0.0
O63 O 0.29797 0.95062 0.80278 0.0
O64 O 0.26985 0.08977 0.8107 0.0
C65 C 0.03191 0.33776 0.30333 0.0
O66 O 0.06584 0.32333 0.29842 0.0
O67 O 0.06472 0.24577 0.32014 0.0
Zn68 Zn 0.01931 0.26913 0.34283 0.0
O69 O 0.02696 0.27598 0.39362 0.0
C70 C 0.9622 0.23263 0.30377 0.0
O71 O 0.97831 0.25322 0.27962 0.0
O72 O 0.00797 0.31971 0.32152 0.0
C73 C 0.02753 0.24774 0.41398 0.0
O74 O 0.02395 0.21318 0.40136 0.0
C75 C 0.09677 0.24047 0.33438 0.0
O76 O 0.10201 0.25083 0.36657 0.0
O77 O 0.97491 0.2347 0.33436 0.0
C78 C 0.64899 0.0459 0.78182 0.0
O79 O 0.66443 0.07684 0.79483 0.0
O80 O 0.74897 0.06412 0.78417 0.0
Zn81 Zn 0.72173 0.01635 0.7989 0.0
O82 O 0.71986 0.01339 0.85051 0.0
C83 C 0.76272 0.96914 0.75115 0.0
O84 O 0.7542 -0.00355 0.7294 0.0
O85 O 0.66861 0.01567 0.7802 0.0
C86 C 0.7504 0.0075 0.86714 0.0
O87 O 0.78235 0.00371 0.85009 0.0
C88 C 0.75496 0.09188 0.80455 0.0
O89 O 0.74233 0.09014 0.83631 0.0
O90 O 0.75092 0.97125 0.78196 0.0
C91 C 0.97897 0.60862 0.25109 0.0
O92 O 0.94589 0.62255 0.26017 0.0
O93 O 0.94994 0.706 0.24112 0.0
Zn94 Zn 0.00047 0.68646 0.25773 0.0
O95 O 0.00443 0.69386 0.30891 0.0
C96 C 0.03631 0.74607 0.21824 0.0
O97 O 0.00116 0.75436 0.20982 0.0
O98 O 0.00689 0.63113 0.24722 0.0
C99 C 0.00431 0.72754 0.3209 0.0
O100 O 0.00103 0.75632 0.29953 0.0
C101 C 0.92198 0.71062 0.26131 0.0
O102 O 0.92496 0.69991 0.2936 0.0
O103 O 0.04278 0.71724 0.23706 0.0
H104 H 0.32426 0.03104 0.09363 0.0
H105 H 0.25418 0.94252 0.91574 0.0
H106 H 0.29022 0.91341 0.08332 0.0
H107 H 0.32634 0.04188 0.92159 0.0
H108 H 0.26249 0.93332 0.97783 0.0
H109 H 0.32073 0.03775 0.03097 0.0
C110 C 0.3162 0.0066 0.07817 0.0
C111 C 0.30751 0.97163 0.09366 0.0
C112 C 0.27666 0.95698 0.96542 0.0
C113 C 0.30302 0.97921 0.02216 0.0
C114 C 0.27183 0.96232 0.93005 0.0
C115 C 0.28955 0.99303 0.91352 0.0
C116 C 0.29886 0.98288 0.98439 0.0
C117 C 0.31223 0.01776 0.93328 0.0
C118 C 0.31429 0.01042 0.04244 0.0
C119 C 0.29728 0.94086 0.07242 0.0
N120 N 0.31597 0.01233 0.96774 0.0
N121 N 0.295 0.94546 0.03773 0.0
H122 H 0.0336 0.22158 0.63589 0.0
H123 H 0.03215 0.31564 0.44824 0.0
H124 H 0.0219 0.34211 0.61722 0.0
H125 H 0.02982 0.19423 0.46531 0.0
H126 H 0.0341 0.32574 0.51036 0.0
H127 H 0.03774 0.21094 0.57372 0.0
C128 C 0.03206 0.24582 0.61875 0.0
C129 C 0.02724 0.28279 0.63177 0.0
C130 C 0.03326 0.29687 0.50055 0.0
C131 C 0.03197 0.2708 0.56068 0.0
C132 C 0.0322 0.29106 0.46505 0.0
C133 C 0.03059 0.25401 0.45154 0.0
C134 C 0.03277 0.26542 0.52282 0.0
C135 C 0.03086 0.22329 0.4746 0.0
C136 C 0.03437 0.23971 0.58327 0.0
C137 C 0.02545 0.31311 0.60835 0.0
N138 N 0.0318 0.22968 0.50915 0.0
N139 N 0.02775 0.30643 0.57397 0.0
H140 H 0.68917 0.01266 0.91023 0.0
H141 H 0.81348 -0.00613 0.08233 0.0
H142 H 0.81088 -0.00192 0.91069 0.0
H143 H 0.6911 0.00107 0.08158 0.0
H144 H 0.81321 -0.00338 0.01948 0.0
H145 H 0.68942 0.0097 0.97307 0.0
C146 C 0.71596 0.00882 0.92353 0.0
C147 C 0.75007 0.0056 0.90516 0.0
C148 C 0.78641 -0.00242 0.03306 0.0
C149 C 0.75055 0.00224 0.97713 0.0
C150 C 0.78654 -0.00396 0.06896 0.0
C151 C 0.75226 -0.00275 0.08726 0.0
C152 C 0.75175 0.00043 0.01527 0.0
C153 C 0.71821 4e-05 0.06855 0.0
C154 C 0.71607 0.00711 0.95943 0.0
C155 C 0.78391 0.00067 0.92379 0.0
N156 N 0.71883 0.00157 0.03359 0.0
N157 N 0.78329 -0.00082 0.95875 0.0
H158 H -0.0021 0.79516 0.35544 0.0
H159 H 0.03547 0.70364 0.54104 0.0
H160 H 0.01734 0.67523 0.37177 0.0
H161 H -0.00325 0.81893 0.5259 0.0
H162 H 0.03409 0.69393 0.47869 0.0
H163 H 0.00226 0.80554 0.41757 0.0
C164 C 0.00314 0.77101 0.37208 0.0
C165 C 0.00718 0.73425 0.3584 0.0
C166 C 0.02594 0.72136 0.48903 0.0
C167 C 0.0123 0.74597 0.42952 0.0
C168 C 0.02682 0.72697 0.52461 0.0
C169 C 0.0161 0.76214 0.53872 0.0
C170 C 0.01445 0.75118 0.46736 0.0
C171 C 0.00512 0.79132 0.51618 0.0
C172 C 0.00557 0.77696 0.40755 0.0
C173 C 0.01393 0.70404 0.3812 0.0
N174 N 0.00458 0.78518 0.48162 0.0
N175 N 0.01632 0.71058 0.41564 0.0
H176 H 0.41058 0.93979 0.23918 0.0
H177 H 0.61351 0.03901 0.23213 0.0
H178 H 0.42779 0.06153 0.24015 0.0
H179 H 0.5975 0.91738 0.23919 0.0
H180 H 0.54585 0.04788 0.24231 0.0
H181 H 0.47887 0.93097 0.24661 0.0
C182 C 0.42865 0.96468 0.24138 0.0
C183 C 0.41356 0.00146 0.23846 0.0
C184 C 0.55715 0.01924 0.24201 0.0
C185 C 0.49169 0.99157 0.24671 0.0
C186 C 0.5958 0.01416 0.23612 0.0
C187 C 0.61104 0.97737 0.23426 0.0
C188 C 0.53347 0.9873 0.24571 0.0
C189 C 0.58686 0.94625 0.24008 0.0
C190 C 0.46765 0.95962 0.24563 0.0
C191 C 0.43825 0.03265 0.24183 0.0
N192 N 0.54914 0.9519 0.24509 0.0
N193 N 0.47616 0.02698 0.24533 0.0
H194 H 0.02816 0.45584 0.74812 0.0
H195 H 0.92441 0.63369 0.66115 0.0
H196 H 0.91741 0.44993 0.70035 0.0
H197 H 0.03804 0.63794 0.7031 0.0
H198 H 0.91835 0.56825 0.68148 0.0
H199 H 0.02899 0.52449 0.73842 0.0
C200 C 0.00382 0.46902 0.73594 0.0
C201 C 0.97284 0.44703 0.72467 0.0
C202 C 0.94453 0.58357 0.68643 0.0
C203 C 0.97374 0.52556 0.71329 0.0
C204 C 0.94803 0.62095 0.67481 0.0
C205 C 0.98194 0.6412 0.68012 0.0
C206 C 0.97517 0.56627 0.70346 0.0
C207 C 0.01148 0.62331 0.69818 0.0
C208 C 0.00436 0.50822 0.73033 0.0
C209 C 0.94203 0.46569 0.7092 0.0
N210 N 0.0075 0.58678 0.70901 0.0
N211 N 0.94341 0.50383 0.7037 0.0
H212 H 0.60771 0.98676 0.75457 0.0
H213 H 0.41023 0.09087 0.78559 0.0
H214 H 0.59761 0.10374 0.78754 0.0
H215 H 0.41945 0.97754 0.74326 0.0
H216 H 0.47887 0.09818 0.78088 0.0
H217 H 0.53916 0.98468 0.74485 0.0
C218 C 0.59114 0.01212 0.75946 0.0
C219 C 0.60835 0.04533 0.77232 0.0
C220 C 0.46589 0.07184 0.77225 0.0
C221 C 0.52989 0.04308 0.7614 0.0
C222 C 0.42666 0.06764 0.77496 0.0
C223 C 0.40914 0.03335 0.76522 0.0
C224 C 0.48787 0.0414 0.76005 0.0
C225 C 0.43181 0.00438 0.7513 0.0
C226 C 0.552 0.01092 0.75387 0.0
C227 C 0.58552 0.07741 0.77792 0.0
N228 N 0.47009 0.00888 0.74954 0.0
N229 N 0.54743 0.07535 0.77278 0.0
H230 H 0.96275 0.37278 0.30416 0.0
H231 H 0.04425 0.5702 0.23539 0.0
H232 H 0.07837 0.38838 0.27012 0.0
H233 H 0.92745 0.5524 0.265 0.0
H234 H 0.05568 0.50208 0.24181 0.0
H235 H 0.94782 0.4368 0.28435 0.0
C236 C 0.98498 0.38961 0.29236 0.0
C237 C 0.022 0.3754 0.28918 0.0
C238 C 0.02745 0.51302 0.24654 0.0
C239 C 0.00509 0.44882 0.26648 0.0
C240 C 0.02088 0.55191 0.24285 0.0
C241 C 0.98496 0.56708 0.25016 0.0
C242 C -0.00206 0.48918 0.25781 0.0
C243 C 0.95568 0.54201 0.25944 0.0
C244 C 0.9764 0.42616 0.28096 0.0
C245 C 0.04953 0.39832 0.27333 0.0
N246 N 0.96294 0.50435 0.26338 0.0
N247 N 0.0406 0.43408 0.26286 0.0
H248 H 0.1623 0.20903 0.35971 0.0
H249 H 0.22107 0.1196 0.1778 0.0
H250 H 0.09969 0.22648 0.26528 0.0
H251 H 0.26514 0.08012 0.27528 0.0
H252 H 0.18481 0.16826 0.20834 0.0
H253 H 0.20852 0.17092 0.32774 0.0
C254 C 0.15849 0.20519 0.33222 0.0
C255 C 0.12688 0.22052 0.31519 0.0
C256 C 0.20265 0.14911 0.223 0.0
C257 C 0.17953 0.17718 0.27857 0.0
C258 C 0.22342 0.12139 0.20558 0.0
C259 C 0.24577 0.09546 0.22407 0.0
C260 C 0.20441 0.15103 0.25911 0.0
C261 C 0.2479 0.09925 0.26004 0.0
C262 C 0.1848 0.18337 0.31403 0.0
C263 C 0.1234 0.21476 0.27952 0.0
N264 N 0.22727 0.12637 0.27642 0.0
N265 N 0.1493 0.1934 0.26243 0.0
H266 H 0.88409 0.25399 0.68509 0.0
H267 H 0.78432 0.14961 0.84396 0.0
H268 H 0.91584 0.27375 0.79118 0.0
H269 H 0.77696 0.1095 0.73892 0.0
H270 H 0.82466 0.20215 0.82469 0.0
H271 H 0.83656 0.208 0.70428 0.0
C272 C 0.88084 0.24895 0.71245 0.0
C273 C 0.90416 0.26755 0.73657 0.0
C274 C 0.81405 0.18192 0.80588 0.0
C275 C 0.84983 0.21493 0.75864 0.0
C276 C 0.79095 0.15199 0.81682 0.0
C277 C 0.77747 0.12499 0.79303 0.0
C278 C 0.82346 0.18504 0.77087 0.0
C279 C 0.78696 0.12951 0.75818 0.0
C280 C 0.85379 0.22257 0.72335 0.0
C281 C 0.89864 0.25987 0.77168 0.0
N282 N 0.80942 0.15893 0.74816 0.0
N283 N 0.87209 0.23404 0.78167 0.0
H284 H 0.90175 0.72899 0.19533 0.0
H285 H 0.76562 0.89441 0.25458 0.0
H286 H 0.86743 0.74381 0.30119 0.0
H287 H 0.76822 0.85383 0.14957 0.0
H288 H 0.80256 0.839 0.27225 0.0
H289 H 0.85237 0.7737 0.17764 0.0
C290 C 0.88349 0.74126 0.2148 0.0
C291 C 0.88892 0.73298 0.24981 0.0
C292 C 0.79466 0.84197 0.24541 0.0
C293 C 0.83284 0.78446 0.22982 0.0
C294 C 0.77375 0.87367 0.23528 0.0
C295 C 0.76418 0.87885 0.20052 0.0
C296 C 0.80664 0.81562 0.22049 0.0
C297 C 0.77513 0.85096 0.17663 0.0
C298 C 0.85528 0.76671 0.20468 0.0
C299 C 0.86433 0.7495 0.27393 0.0
N300 N 0.79627 0.82076 0.18699 0.0
N301 N 0.83772 0.77494 0.26354 0.0
H302 H 0.13228 0.78362 0.70188 0.0
H303 H 0.21845 0.991 0.73741 0.0
H304 H 0.08743 0.88731 0.65847 0.0
H305 H 0.26523 0.88864 0.78173 0.0
H306 H 0.17248 0.95251 0.70587 0.0
H307 H 0.1833 0.82061 0.72896 0.0
C308 C 0.13326 0.81411 0.69789 0.0
C309 C 0.10542 0.83243 0.67802 0.0
C310 C 0.19286 0.93836 0.72236 0.0
C311 C 0.16362 0.87485 0.70894 0.0
C312 C 0.21918 0.96037 0.74043 0.0
C313 C 0.24564 0.94304 0.76243 0.0
C314 C 0.19278 0.89865 0.72634 0.0
C315 C 0.24528 0.9032 0.76512 0.0
C316 C 0.16238 0.83519 0.71337 0.0
C317 C 0.10814 0.87197 0.67369 0.0
N318 N 0.2191 0.88233 0.74742 0.0
N319 N 0.13659 0.89183 0.68912 0.0
H320 H 0.78909 0.91077 0.79108 0.0
H321 H 0.927 0.82938 0.64518 0.0
H322 H 0.79534 0.95664 0.6881 0.0
H323 H 0.92807 0.79106 0.75082 0.0
H324 H 0.8746 0.87209 0.65895 0.0
H325 H 0.83552 0.8625 0.77514 0.0
C326 C 0.80002 0.91055 0.76502 0.0
C327 C 0.78849 0.93798 0.74094 0.0
C328 C 0.8862 0.85424 0.67909 0.0
C329 C 0.84184 0.88281 0.72258 0.0
C330 C 0.91612 0.82982 0.67125 0.0
C331 C 0.93211 0.80677 0.69696 0.0
C332 C 0.8721 0.85563 0.71286 0.0
C333 C 0.91677 0.80846 0.73024 0.0
C334 C 0.82661 0.88299 0.75596 0.0
C335 C 0.80355 0.93618 0.70754 0.0
N336 N 0.88769 0.83258 0.73725 0.0
N337 N 0.8296 0.90917 0.6994 0.0
H338 H 0.16216 0.94835 0.16522 0.0
H339 H 0.11121 0.74121 0.2369 0.0
H340 H 0.23935 0.88036 0.22581 0.0
H341 H 0.03208 0.81232 0.18153 0.0
H342 H 0.16036 0.78945 0.22873 0.0
H343 H 0.11575 0.89679 0.16736 0.0
C344 C 0.16937 0.92257 0.179 0.0
C345 C 0.20462 0.91873 0.19553 0.0
C346 C 0.13231 0.79438 0.21817 0.0
C347 C 0.15162 0.85949 0.19795 0.0
C348 C 0.10425 0.76678 0.2227 0.0
C349 C 0.06737 0.77286 0.21009 0.0
C350 C 0.12344 0.82831 0.20091 0.0
C351 C 0.06005 0.80651 0.19186 0.0
C352 C 0.14285 0.89309 0.18014 0.0
C353 C 0.21245 0.88461 0.21285 0.0
N354 N 0.08777 0.83307 0.18801 0.0
N355 N 0.1861 0.85631 0.21367 0.0
H356 H 0.05351 0.24961 0.84177 0.0
H357 H 0.25059 0.15516 0.78722 0.0
H358 H 0.1214 0.28753 0.75589 0.0
H359 H 0.17994 0.11325 0.86968 0.0
H360 H 0.20791 0.20932 0.78054 0.0
H361 H 0.10399 0.20539 0.85773 0.0
C362 C 0.07922 0.24902 0.82653 0.0
C363 C 0.08301 0.27195 0.79718 0.0
C364 C 0.20191 0.18844 0.80029 0.0
C365 C 0.14075 0.22121 0.81513 0.0
C366 C 0.22628 0.15749 0.80411 0.0
C367 C 0.21857 0.12937 0.82877 0.0
C368 C 0.16954 0.19126 0.8212 0.0
C369 C 0.18679 0.13404 0.8501 0.0
C370 C 0.108 0.22368 0.8356 0.0
C371 C 0.11706 0.2701 0.77851 0.0
N372 N 0.16327 0.16421 0.84563 0.0
N373 N 0.14443 0.24488 0.7876 0.0
H374 H 0.92783 0.22234 0.24124 0.0
H375 H 0.79278 0.05365 0.30616 0.0
H376 H 0.92484 0.18328 0.34662 0.0
H377 H 0.79685 0.09369 0.20111 0.0
H378 H 0.83885 0.10281 0.32234 0.0
H379 H 0.87752 0.17719 0.22687 0.0
C380 C 0.91651 0.20434 0.2614 0.0
C381 C 0.9307 0.20646 0.29515 0.0
C382 C 0.82952 0.1009 0.29578 0.0
C383 C 0.87307 0.15458 0.27884 0.0
C384 C 0.80322 0.07286 0.28654 0.0
C385 C 0.79109 0.06943 0.2522 0.0
C386 C 0.84378 0.12563 0.27049 0.0
C387 C 0.8055 0.09515 0.22787 0.0
C388 C 0.88775 0.17855 0.25317 0.0
C389 C 0.91483 0.18252 0.32024 0.0
N390 N 0.83116 0.12204 0.23747 0.0
N391 N 0.88695 0.15745 0.31154 0.0
loop_
_geom_bond_atom_site_label_1
_geom_bond_atom_site_label_2
_geom_bond_distance
_geom_bond_site_symmetry_2
_ccdc_geom_bond_type
C0 O1 1.160 . S
C0 O7 1.185 . S
O1 C0 1.160 . S
O2 Zn3 1.899 . S
O2 C10 1.284 . S
Zn3 O2 1.899 . S
Zn3 O4 2.032 . S
Zn3 O7 2.086 . S
Zn3 O12 1.977 1_545 S
O4 Zn3 2.032 . S
O4 C8 1.278 . S
C5 O6 1.203 . S
C5 O12 1.267 . S
O6 C5 1.203 . S
O7 C0 1.185 . S
O7 Zn3 2.086 . S
C8 O4 1.278 . S
C8 O9 1.211 1_545 S
O9 C8 1.211 1_565 S
C10 O2 1.284 . S
C10 O11 1.273 . S
O11 C10 1.273 . S
O12 Zn3 1.977 1_565 S
O12 C5 1.267 . S
C13 O14 1.160 1_455 S
C13 O20 1.185 . S
O14 C13 1.160 1_655 S
O15 Zn16 1.899 1_655 S
O15 C23 1.284 . S
Zn16 O15 1.899 1_455 S
Zn16 O17 2.032 . S
Zn16 O20 2.086 . S
Zn16 O25 1.977 . S
O17 Zn16 2.032 . S
O17 C21 1.278 . S
C18 O19 1.203 . S
C18 O25 1.267 . S
O19 C18 1.203 . S
O20 C13 1.185 . S
O20 Zn16 2.086 . S
C21 O17 1.278 . S
C21 O22 1.211 . S
O22 C21 1.211 . S
C23 O15 1.284 . S
C23 O24 1.273 . S
O24 C23 1.273 . S
O25 Zn16 1.977 . S
O25 C18 1.267 . S
C26 O27 1.160 1_545 S
C26 O33 1.185 . S
O27 C26 1.160 1_565 S
O28 Zn29 1.899 1_565 S
O28 C36 1.284 . S
Zn29 O28 1.899 1_545 S
Zn29 O30 2.032 . S
Zn29 O33 2.086 . S
Zn29 O38 1.977 . S
O30 Zn29 2.032 . S
O30 C34 1.278 . S
C31 O32 1.203 . S
C31 O38 1.267 . S
O32 C31 1.203 . S
O33 C26 1.185 . S
O33 Zn29 2.086 . S
C34 O30 1.278 . S
C34 O35 1.211 . S
O35 C34 1.211 . S
C36 O28 1.284 . S
C36 O37 1.273 . S
O37 C36 1.273 . S
O38 Zn29 1.977 . S
O38 C31 1.267 . S
C39 O40 1.160 . S
C39 O46 1.185 . S
O40 C39 1.160 . S
O41 Zn42 1.899 . S
O41 C49 1.284 . S
Zn42 O41 1.899 . S
Zn42 O43 2.032 . S
Zn42 O46 2.086 . S
Zn42 O51 1.977 1_455 S
O43 Zn42 2.032 . S
O43 C47 1.278 . S
C44 O45 1.203 . S
C44 O51 1.267 . S
O45 C44 1.203 . S
O46 C39 1.185 . S
O46 Zn42 2.086 . S
C47 O43 1.278 . S
C47 O48 1.211 1_455 S
O48 C47 1.211 1_655 S
C49 O41 1.284 . S
C49 O50 1.273 . S
O50 C49 1.273 . S
O51 Zn42 1.977 1_655 S
O51 C44 1.267 . S
C52 O53 1.160 1_545 S
C52 O59 1.185 . S
O53 C52 1.160 1_565 S
O54 Zn55 1.899 1_565 S
O54 C62 1.284 . S
Zn55 O54 1.899 1_545 S
Zn55 O56 2.032 . S
Zn55 O59 2.086 . S
Zn55 O64 1.977 . S
O56 Zn55 2.032 . S
O56 C60 1.278 . S
C57 O58 1.203 . S
C57 O64 1.267 . S
O58 C57 1.203 . S
O59 C52 1.185 . S
O59 Zn55 2.086 . S
C60 O56 1.278 . S
C60 O61 1.211 . S
O61 C60 1.211 . S
C62 O54 1.284 . S
C62 O63 1.273 . S
O63 C62 1.273 . S
O64 Zn55 1.977 . S
O64 C57 1.267 . S
C65 O66 1.160 . S
C65 O72 1.185 . S
O66 C65 1.160 . S
O67 Zn68 1.899 . S
O67 C75 1.284 . S
Zn68 O67 1.899 . S
Zn68 O69 2.032 . S
Zn68 O72 2.086 . S
Zn68 O77 1.977 1_455 S
O69 Zn68 2.032 . S
O69 C73 1.278 . S
C70 O71 1.203 . S
C70 O77 1.267 . S
O71 C70 1.203 . S
O72 C65 1.185 . S
O72 Zn68 2.086 . S
C73 O69 1.278 . S
C73 O74 1.211 1_455 S
O74 C73 1.211 1_655 S
C75 O67 1.284 . S
C75 O76 1.273 . S
O76 C75 1.273 . S
O77 Zn68 1.977 1_655 S
O77 C70 1.267 . S
C78 O79 1.160 . S
C78 O85 1.185 . S
O79 C78 1.160 . S
O80 Zn81 1.899 . S
O80 C88 1.284 . S
Zn81 O80 1.899 . S
Zn81 O82 2.032 . S
Zn81 O85 2.086 . S
Zn81 O90 1.977 1_545 S
O82 Zn81 2.032 . S
O82 C86 1.278 . S
C83 O84 1.203 . S
C83 O90 1.267 . S
O84 C83 1.203 . S
O85 C78 1.185 . S
O85 Zn81 2.086 . S
C86 O82 1.278 . S
C86 O87 1.211 1_545 S
O87 C86 1.211 1_565 S
C88 O80 1.284 . S
C88 O89 1.273 . S
O89 C88 1.273 . S
O90 Zn81 1.977 1_565 S
O90 C83 1.267 . S
C91 O92 1.160 1_455 S
C91 O98 1.185 . S
O92 C91 1.160 1_655 S
O93 Zn94 1.899 1_655 S
O93 C101 1.284 . S
Zn94 O93 1.899 1_455 S
Zn94 O95 2.032 . S
Zn94 O98 2.086 . S
Zn94 O103 1.977 . S
O95 Zn94 2.032 . S
O95 C99 1.278 . S
C96 O97 1.203 . S
C96 O103 1.267 . S
O97 C96 1.203 . S
O98 C91 1.185 . S
O98 Zn94 2.086 . S
C99 O95 1.278 . S
C99 O100 1.211 . S
O100 C99 1.211 . S
C101 O93 1.284 . S
C101 O102 1.273 . S
O102 C101 1.273 . S
O103 Zn94 1.977 . S
O103 C96 1.267 . S
H104 C110 0.930 . S
H105 C114 0.930 . S
H106 C119 0.929 . S
H107 C117 0.929 . S
H108 C112 0.929 . S
H109 C118 0.929 . S
C110 H104 0.930 . S
C110 C111 1.367 . S
C110 C118 1.378 . S
C111 C110 1.367 . S
C111 C119 1.433 1_545 S
C112 H108 0.929 . S
C112 C114 1.378 . S
C112 C116 1.350 1_565 S
C113 C116 1.463 1_554 S
C113 C118 1.350 . S
C113 N121 1.427 1_545 S
C114 H105 0.930 . S
C114 C112 1.378 . S
C114 C115 1.367 1_565 S
C115 C114 1.367 1_545 S
C115 C117 1.433 . S
C116 C112 1.350 1_545 S
C116 C113 1.463 1_556 S
C116 N120 1.427 . S
C117 H107 0.929 . S
C117 C115 1.433 . S
C117 N120 1.384 . S
C118 H109 0.929 . S
C118 C110 1.378 . S
C118 C113 1.350 . S
C119 H106 0.929 . S
C119 C111 1.433 1_565 S
C119 N121 1.384 . S
N120 C116 1.427 . S
N120 C117 1.384 . S
N121 C113 1.427 1_565 S
N121 C119 1.384 . S
H122 C128 0.930 . S
H123 C132 0.930 . S
H124 C137 0.929 . S
H125 C135 0.929 1_655 S
H126 C130 0.929 . S
H127 C136 0.940 . S
C128 H122 0.930 . S
C128 C129 1.367 1_655 S
C128 C136 1.379 . S
C129 C128 1.367 1_455 S
C129 C137 1.433 . S
C130 H126 0.929 . S
C130 C132 1.378 . S
C130 C134 1.350 . S
C131 C134 1.463 . S
C131 C136 1.338 1_455 S
C131 N139 1.427 . S
C132 H123 0.930 . S
C132 C130 1.378 . S
C132 C133 1.367 . S
C133 C132 1.367 . S
C133 C135 1.433 . S
C134 C130 1.350 . S
C134 C131 1.463 . S
C134 N138 1.427 . S
C135 H125 0.929 1_455 S
C135 C133 1.433 . S
C135 N138 1.384 . S
C136 H127 0.940 . S
C136 C128 1.379 . S
C136 C131 1.338 1_655 S
C137 H124 0.929 . S
C137 C129 1.433 . S
C137 N139 1.384 . S
N138 C134 1.427 . S
N138 C135 1.384 . S
N139 C131 1.427 . S
N139 C137 1.384 . S
H140 C146 0.930 . S
H141 C150 0.930 . S
H142 C155 0.929 . S
H143 C153 0.929 . S
H144 C148 0.929 . S
H145 C154 0.929 . S
C146 H140 0.930 . S
C146 C147 1.367 . S
C146 C154 1.378 . S
C147 C146 1.367 . S
C147 C155 1.433 1_545 S
C148 H144 0.929 . S
C148 C150 1.378 . S
C148 C152 1.350 1_565 S
C149 C152 1.463 1_556 S
C149 C154 1.350 . S
C149 N157 1.427 1_545 S
C150 H141 0.930 . S
C150 C148 1.378 . S
C150 C151 1.367 1_565 S
C151 C150 1.367 1_545 S
C151 C153 1.433 . S
C152 C148 1.350 1_545 S
C152 C149 1.463 1_554 S
C152 N156 1.427 . S
C153 H143 0.929 . S
C153 C151 1.433 . S
C153 N156 1.384 . S
C154 H145 0.929 . S
C154 C146 1.378 . S
C154 C149 1.350 . S
C155 H142 0.929 . S
C155 C147 1.433 1_565 S
C155 N157 1.384 . S
N156 C152 1.427 . S
N156 C153 1.384 . S
N157 C149 1.427 1_565 S
N157 C155 1.384 . S
H158 C164 0.930 . S
H159 C168 0.930 . S
H160 C173 0.929 . S
H161 C171 0.929 . S
H162 C166 0.929 . S
H163 C172 0.929 . S
C164 H158 0.930 . S
C164 C165 1.367 1_655 S
C164 C172 1.378 . S
C165 C164 1.367 1_455 S
C165 C173 1.433 . S
C166 H162 0.929 . S
C166 C168 1.378 . S
C166 C170 1.350 . S
C167 C170 1.463 . S
C167 C172 1.350 1_455 S
C167 N175 1.427 . S
C168 H159 0.930 . S
C168 C166 1.378 . S
C168 C169 1.367 . S
C169 C168 1.367 . S
C169 C171 1.433 1_455 S
C170 C166 1.350 . S
C170 C167 1.463 . S
C170 N174 1.427 1_455 S
C171 H161 0.929 . S
C171 C169 1.433 1_655 S
C171 N174 1.384 . S
C172 H163 0.929 . S
C172 C164 1.378 . S
C172 C167 1.350 1_655 S
C173 H160 0.929 . S
C173 C165 1.433 . S
C173 N175 1.384 . S
N174 C170 1.427 1_655 S
N174 C171 1.384 . S
N175 C167 1.427 . S
N175 C173 1.384 . S
H176 C182 0.930 . S
H177 C186 0.930 . S
H178 C191 0.929 . S
H179 C189 0.929 . S
H180 C184 0.929 . S
H181 C190 0.929 . S
C182 H176 0.930 . S
C182 C183 1.367 1_565 S
C182 C190 1.378 . S
C183 C182 1.367 1_545 S
C183 C191 1.433 . S
C184 H180 0.929 . S
C184 C186 1.378 . S
C184 C188 1.350 . S
C185 C188 1.463 . S
C185 C190 1.350 1_545 S
C185 N193 1.427 . S
C186 H177 0.930 . S
C186 C184 1.378 . S
C186 C187 1.367 . S
C187 C186 1.367 . S
C187 C189 1.433 1_545 S
C188 C184 1.350 . S
C188 C185 1.463 . S
C188 N192 1.427 1_545 S
C189 H179 0.929 . S
C189 C187 1.433 1_565 S
C189 N192 1.384 . S
C190 H181 0.929 . S
C190 C182 1.378 . S
C190 C185 1.350 1_565 S
C191 H178 0.929 . S
C191 C183 1.433 . S
C191 N193 1.384 . S
N192 C188 1.427 1_565 S
N192 C189 1.384 . S
N193 C185 1.427 . S
N193 C191 1.384 . S
H194 C200 0.930 1_655 S
H195 C204 0.930 . S
H196 C209 0.929 . S
H197 C207 0.929 . S
H198 C202 0.929 . S
H199 C208 0.929 . S
C200 H194 0.930 1_455 S
C200 C201 1.367 . S
C200 C208 1.378 . S
C201 C200 1.367 . S
C201 C209 1.433 . S
C202 H198 0.929 . S
C202 C204 1.378 . S
C202 C206 1.350 . S
C203 C206 1.463 . S
C203 C208 1.350 . S
C203 N211 1.427 . S
C204 H195 0.930 . S
C204 C202 1.378 . S
C204 C205 1.367 . S
C205 C204 1.367 . S
C205 C207 1.433 . S
C206 C202 1.350 . S
C206 C203 1.463 . S
C206 N210 1.427 . S
C207 H197 0.929 . S
C207 C205 1.433 . S
C207 N210 1.384 . S
C208 H199 0.929 . S
C208 C200 1.378 . S
C208 C203 1.350 . S
C209 H196 0.929 . S
C209 C201 1.433 . S
C209 N211 1.384 . S
N210 C206 1.427 . S
N210 C207 1.384 . S
N211 C203 1.427 . S
N211 C209 1.384 . S
H212 C218 0.930 . S
H213 C222 0.930 . S
H214 C227 0.929 . S
H215 C225 0.929 . S
H216 C220 0.929 . S
H217 C226 0.929 . S
C218 H212 0.930 . S
C218 C219 1.367 1_565 S
C218 C226 1.378 . S
C219 C218 1.367 1_545 S
C219 C227 1.433 . S
C220 H216 0.929 . S
C220 C222 1.378 . S
C220 C224 1.350 . S
C221 C224 1.463 . S
C221 C226 1.350 1_545 S
C221 N229 1.427 . S
C222 H213 0.930 . S
C222 C220 1.378 . S
C222 C223 1.367 . S
C223 C222 1.367 . S
C223 C225 1.433 1_545 S
C224 C220 1.350 . S
C224 C221 1.463 . S
C224 N228 1.427 1_545 S
C225 H215 0.929 . S
C225 C223 1.433 1_565 S
C225 N228 1.384 . S
C226 H217 0.929 . S
C226 C218 1.378 . S
C226 C221 1.350 1_565 S
C227 H214 0.929 . S
C227 C219 1.433 . S
C227 N229 1.384 . S
N228 C224 1.427 1_565 S
N228 C225 1.384 . S
N229 C221 1.427 . S
N229 C227 1.384 . S
H230 C236 0.930 . S
H231 C240 0.930 . S
H232 C245 0.929 . S
H233 C243 0.929 . S
H234 C238 0.929 . S
H235 C244 0.929 . S
C236 H230 0.930 . S
C236 C237 1.367 1_655 S
C236 C244 1.378 . S
C237 C236 1.367 1_455 S
C237 C245 1.433 . S
C238 H234 0.929 . S
C238 C240 1.378 . S
C238 C242 1.350 . S
C239 C242 1.463 . S
C239 C244 1.350 1_455 S
C239 N247 1.427 . S
C240 H231 0.930 . S
C240 C238 1.378 . S
C240 C241 1.367 . S
C241 C240 1.367 . S
C241 C243 1.433 1_455 S
C242 C238 1.350 . S
C242 C239 1.463 . S
C242 N246 1.427 1_455 S
C243 H233 0.929 . S
C243 C241 1.433 1_655 S
C243 N246 1.384 . S
C244 H235 0.929 . S
C244 C236 1.378 . S
C244 C239 1.350 1_655 S
C245 H232 0.929 . S
C245 C237 1.433 . S
C245 N247 1.384 . S
N246 C242 1.427 1_655 S
N246 C243 1.384 . S
N247 C239 1.427 . S
N247 C245 1.384 . S
H248 C254 0.930 . S
H249 C258 0.930 . S
H250 C263 0.929 . S
H251 C261 0.929 . S
H252 C256 0.929 . S
H253 C262 0.929 . S
C254 H248 0.930 . S
C254 C255 1.367 . S
C254 C262 1.378 . S
C255 C254 1.367 . S
C255 C263 1.433 . S
C256 H252 0.929 . S
C256 C258 1.378 . S
C256 C260 1.350 . S
C257 C260 1.463 . S
C257 C262 1.350 . S
C257 N265 1.427 . S
C258 H249 0.930 . S
C258 C256 1.378 . S
C258 C259 1.367 . S
C259 C258 1.367 . S
C259 C261 1.433 . S
C260 C256 1.350 . S
C260 C257 1.463 . S
C260 N264 1.427 . S
C261 H251 0.929 . S
C261 C259 1.433 . S
C261 N264 1.384 . S
C262 H253 0.929 . S
C262 C254 1.378 . S
C262 C257 1.350 . S
C263 H250 0.929 . S
C263 C255 1.433 . S
C263 N265 1.384 . S
N264 C260 1.427 . S
N264 C261 1.384 . S
N265 C257 1.427 . S
N265 C263 1.384 . S
H266 C272 0.930 . S
H267 C276 0.930 . S
H268 C281 0.929 . S
H269 C279 0.929 . S
H270 C274 0.929 . S
H271 C280 0.929 . S
C272 H266 0.930 . S
C272 C273 1.367 . S
C272 C280 1.378 . S
C273 C272 1.367 . S
C273 C281 1.433 . S
C274 H270 0.929 . S
C274 C276 1.378 . S
C274 C278 1.350 . S
C275 C278 1.463 . S
C275 C280 1.350 . S
C275 N283 1.427 . S
C276 H267 0.930 . S
C276 C274 1.378 . S
C276 C277 1.367 . S
C277 C276 1.367 . S
C277 C279 1.433 . S
C278 C274 1.350 . S
C278 C275 1.463 . S
C278 N282 1.427 . S
C279 H269 0.929 . S
C279 C277 1.433 . S
C279 N282 1.384 . S
C280 H271 0.929 . S
C280 C272 1.378 . S
C280 C275 1.350 . S
C281 H268 0.929 . S
C281 C273 1.433 . S
C281 N283 1.384 . S
N282 C278 1.427 . S
N282 C279 1.384 . S
N283 C275 1.427 . S
N283 C281 1.384 . S
H284 C290 0.930 . S
H285 C294 0.930 . S
H286 C299 0.929 . S
H287 C297 0.929 . S
H288 C292 0.929 . S
H289 C298 0.929 . S
C290 H284 0.930 . S
C290 C291 1.367 . S
C290 C298 1.378 . S
C291 C290 1.367 . S
C291 C299 1.433 . S
C292 H288 0.929 . S
C292 C294 1.378 . S
C292 C296 1.350 . S
C293 C296 1.463 . S
C293 C298 1.350 . S
C293 N301 1.427 . S
C294 H285 0.930 . S
C294 C292 1.378 . S
C294 C295 1.367 . S
C295 C294 1.367 . S
C295 C297 1.433 . S
C296 C292 1.350 . S
C296 C293 1.463 . S
C296 N300 1.427 . S
C297 H287 0.929 . S
C297 C295 1.433 . S
C297 N300 1.384 . S
C298 H289 0.929 . S
C298 C290 1.378 . S
C298 C293 1.350 . S
C299 H286 0.929 . S
C299 C291 1.433 . S
C299 N301 1.384 . S
N300 C296 1.427 . S
N300 C297 1.384 . S
N301 C293 1.427 . S
N301 C299 1.384 . S
H302 C308 0.930 . S
H303 C312 0.930 . S
H304 C317 0.929 . S
H305 C315 0.929 . S
H306 C310 0.929 . S
H307 C316 0.929 . S
C308 H302 0.930 . S
C308 C309 1.367 . S
C308 C316 1.378 . S
C309 C308 1.367 . S
C309 C317 1.433 . S
C310 H306 0.929 . S
C310 C312 1.378 . S
C310 C314 1.350 . S
C311 C314 1.463 . S
C311 C316 1.350 . S
C311 N319 1.427 . S
C312 H303 0.930 . S
C312 C310 1.378 . S
C312 C313 1.367 . S
C313 C312 1.367 . S
C313 C315 1.433 . S
C314 C310 1.350 . S
C314 C311 1.463 . S
C314 N318 1.427 . S
C315 H305 0.929 . S
C315 C313 1.433 . S
C315 N318 1.384 . S
C316 H307 0.929 . S
C316 C308 1.378 . S
C316 C311 1.350 . S
C317 H304 0.929 . S
C317 C309 1.433 . S
C317 N319 1.384 . S
N318 C314 1.427 . S
N318 C315 1.384 . S
N319 C311 1.427 . S
N319 C317 1.384 . S
H320 C326 0.930 . S
H321 C330 0.930 . S
H322 C335 0.929 . S
H323 C333 0.929 . S
H324 C328 0.929 . S
H325 C334 0.929 . S
C326 H320 0.930 . S
C326 C327 1.367 . S
C326 C334 1.378 . S
C327 C326 1.367 . S
C327 C335 1.433 . S
C328 H324 0.929 . S
C328 C330 1.378 . S
C328 C332 1.350 . S
C329 C332 1.463 . S
C329 C334 1.350 . S
C329 N337 1.427 . S
C330 H321 0.930 . S
C330 C328 1.378 . S
C330 C331 1.367 . S
C331 C330 1.367 . S
C331 C333 1.433 . S
C332 C328 1.350 . S
C332 C329 1.463 . S
C332 N336 1.427 . S
C333 H323 0.929 . S
C333 C331 1.433 . S
C333 N336 1.384 . S
C334 H325 0.929 . S
C334 C326 1.378 . S
C334 C329 1.350 . S
C335 H322 0.929 . S
C335 C327 1.433 . S
C335 N337 1.384 . S
N336 C332 1.427 . S
N336 C333 1.384 . S
N337 C329 1.427 . S
N337 C335 1.384 . S
H338 C344 0.930 . S
H339 C348 0.930 . S
H340 C353 0.929 . S
H341 C351 0.929 . S
H342 C346 0.929 . S
H343 C352 0.929 . S
C344 H338 0.930 . S
C344 C345 1.367 . S
C344 C352 1.378 . S
C345 C344 1.367 . S
C345 C353 1.433 . S
C346 H342 0.929 . S
C346 C348 1.378 . S
C346 C350 1.350 . S
C347 C350 1.463 . S
C347 C352 1.350 . S
C347 N355 1.427 . S
C348 H339 0.930 . S
C348 C346 1.378 . S
C348 C349 1.367 . S
C349 C348 1.367 . S
C349 C351 1.433 . S
C350 C346 1.350 . S
C350 C347 1.463 . S
C350 N354 1.427 . S
C351 H341 0.929 . S
C351 C349 1.433 . S
C351 N354 1.384 . S
C352 H343 0.929 . S
C352 C344 1.378 . S
C352 C347 1.350 . S
C353 H340 0.929 . S
C353 C345 1.433 . S
C353 N355 1.384 . S
N354 C350 1.427 . S
N354 C351 1.384 . S
N355 C347 1.427 . S
N355 C353 1.384 . S
H356 C362 0.930 . S
H357 C366 0.930 . S
H358 C371 0.929 . S
H359 C369 0.929 . S
H360 C364 0.929 . S
H361 C370 0.929 . S
C362 H356 0.930 . S
C362 C363 1.367 . S
C362 C370 1.378 . S
C363 C362 1.367 . S
C363 C371 1.433 . S
C364 H360 0.929 . S
C364 C366 1.378 . S
C364 C368 1.350 . S
C365 C368 1.463 . S
C365 C370 1.350 . S
C365 N373 1.427 . S
C366 H357 0.930 . S
C366 C364 1.378 . S
C366 C367 1.367 . S
C367 C366 1.367 . S
C367 C369 1.433 . S
C368 C364 1.350 . S
C368 C365 1.463 . S
C368 N372 1.427 . S
C369 H359 0.929 . S
C369 C367 1.433 . S
C369 N372 1.384 . S
C370 H361 0.929 . S
C370 C362 1.378 . S
C370 C365 1.350 . S
C371 H358 0.929 . S
C371 C363 1.433 . S
C371 N373 1.384 . S
N372 C368 1.427 . S
N372 C369 1.384 . S
N373 C365 1.427 . S
N373 C371 1.384 . S
H374 C380 0.930 . S
H375 C384 0.930 . S
H376 C389 0.929 . S
H377 C387 0.929 . S
H378 C382 0.929 . S
H379 C388 0.929 . S
C380 H374 0.930 . S
C380 C381 1.367 . S
C380 C388 1.378 . S
C381 C380 1.367 . S
C381 C389 1.433 . S
C382 H378 0.929 . S
C382 C384 1.378 . S
C382 C386 1.350 . S
C383 C386 1.463 . S
C383 C388 1.350 . S
C383 N391 1.427 . S
C384 H375 0.930 . S
C384 C382 1.378 . S
C384 C385 1.367 . S
C385 C384 1.367 . S
C385 C387 1.433 . S
C386 C382 1.350 . S
C386 C383 1.463 . S
C386 N390 1.427 . S
C387 H377 0.929 . S
C387 C385 1.433 . S
C387 N390 1.384 . S
C388 H379 0.929 . S
C388 C380 1.378 . S
C388 C383 1.350 . S
C389 H376 0.929 . S
C389 C381 1.433 . S
C389 N391 1.384 . S
N390 C386 1.427 . S
N390 C387 1.384 . S
N391 C383 1.427 . S
N391 C389 1.384 . S
C111 C8 1.532 . S
C115 C60 1.529 . S
C129 C21 1.526 . S
C133 C73 1.531 . S
C147 C86 1.532 . S
C151 C34 1.526 . S
C165 C99 1.527 . S
C169 C47 1.532 . S
C183 C0 1.116 . S
C187 C26 1.116 . S
C201 C13 1.112 . S
C205 C39 1.111 . S
C219 C78 1.116 . S
C223 C52 1.116 . S
C237 C65 1.115 . S
C241 C91 1.115 . S
C255 C75 1.285 . S
C259 C10 1.292 . S
C273 C23 1.283 . S
C277 C88 1.286 . S
C291 C101 1.298 . S
C295 C36 1.295 . S
C309 C49 1.296 . S
C313 C62 1.289 . S
C327 C83 1.209 . S
C331 C44 1.207 . S
C345 C5 1.210 . S
C349 C96 1.214 . S
C363 C18 1.207 . S
C367 C57 1.216 . S
C381 C70 1.213 . S
C385 C31 1.210 . S
