# Generated by pormake.
# Topology dft, (4)-cn, num edge types: 1
# Building blocks:
#     Node 0, Type 0, BuildingBlock: CEKHIL_clean_sbu_0, # of connection points: 4
#     Node 1, Type 0, BuildingBlock: CEKHIL_clean_sbu_0, # of connection points: 4
#     Node 2, Type 0, BuildingBlock: CEKHIL_clean_sbu_0, # of connection points: 4
#     Node 3, Type 0, BuildingBlock: CEKHIL_clean_sbu_0, # of connection points: 4
#     Node 4, Type 0, BuildingBlock: CEKHIL_clean_sbu_0, # of connection points: 4
#     Node 5, Type 0, BuildingBlock: CEKHIL_clean_sbu_0, # of connection points: 4
#     Node 6, Type 0, BuildingBlock: CEKHIL_clean_sbu_0, # of connection points: 4
#     Node 7, Type 0, BuildingBlock: CEKHIL_clean_sbu_0, # of connection points: 4
#     Edge 8, Type (0, 0), BuildingBlock: OJICUG_clean_linker_0, # of connection points: 2
#     Edge 9, Type (0, 0), BuildingBlock: OJICUG_clean_linker_0, # of connection points: 2
#     Edge 10, Type (0, 0), BuildingBlock: OJICUG_clean_linker_0, # of connection points: 2
#     Edge 11, Type (0, 0), BuildingBlock: OJICUG_clean_linker_0, # of connection points: 2
#     Edge 12, Type (0, 0), BuildingBlock: OJICUG_clean_linker_0, # of connection points: 2
#     Edge 13, Type (0, 0), BuildingBlock: OJICUG_clean_linker_0, # of connection points: 2
#     Edge 14, Type (0, 0), BuildingBlock: OJICUG_clean_linker_0, # of connection points: 2
#     Edge 15, Type (0, 0), BuildingBlock: OJICUG_clean_linker_0, # of connection points: 2
#     Edge 16, Type (0, 0), BuildingBlock: OJICUG_clean_linker_0, # of connection points: 2
#     Edge 17, Type (0, 0), BuildingBlock: OJICUG_clean_linker_0, # of connection points: 2
#     Edge 18, Type (0, 0), BuildingBlock: OJICUG_clean_linker_0, # of connection points: 2
#     Edge 19, Type (0, 0), BuildingBlock: OJICUG_clean_linker_0, # of connection points: 2
#     Edge 20, Type (0, 0), BuildingBlock: OJICUG_clean_linker_0, # of connection points: 2
#     Edge 21, Type (0, 0), BuildingBlock: OJICUG_clean_linker_0, # of connection points: 2
#     Edge 22, Type (0, 0), BuildingBlock: OJICUG_clean_linker_0, # of connection points: 2
#     Edge 23, Type (0, 0), BuildingBlock: OJICUG_clean_linker_0, # of connection points: 2
# Relax obj value: 0.181
# Max RMSD: 0.171
# Mean RMSD: 0.171
data_MOF--net-dft--node1-CEKHIL_clean_sbu_0--edge1-OJICUG_clean_linker_0
_symmetry_space_group_name_H-M    P1
_symmetry_Int_Tables_number       1
_symmetry_cell_setting            triclinic
loop_
_symmetry_equiv_pos_as_xyz
'x, y, z'
_cell_length_a     24.495671
_cell_length_b     24.510277
_cell_length_c     29.853234
_cell_angle_alpha  90.051131
_cell_angle_beta   90.018434
_cell_angle_gamma 89.859257
loop_
_atom_site_label
_atom_site_type_symbol
_atom_site_fract_x
_atom_site_fract_y
_atom_site_fract_z
_atom_type_partial_charge
Co0 Co 0.36028 0.05036 0.18052 0.0
O1 O 0.43006 0.01441 0.17453 0.0
O2 O 0.41852 0.0986 0.19959 0.0
C3 C 0.31717 0.97855 0.21069 0.0
O4 O 0.29414 0.10021 0.19434 0.0
Co5 Co 0.25635 1.00614 0.13194 0.0
O6 O 0.21754 0.05684 0.17284 0.0
C7 C 0.35122 0.04781 0.08226 0.0
C8 C 0.45185 0.05896 0.18963 0.0
C9 C 0.24153 0.09537 0.19373 0.0
O10 O 0.36628 0.07587 0.1166 0.0
O11 O 0.31239 0.01304 0.08354 0.0
O12 O 0.34611 0.01035 0.23642 0.0
O13 O 0.31866 0.98944 0.16881 0.0
Co14 Co 0.09146 0.361 0.68008 0.0
O15 O 0.12967 0.42937 0.67276 0.0
O16 O 0.04619 0.42066 0.70024 0.0
C17 C 0.16205 0.31419 0.70853 0.0
O18 O 0.0394 0.29834 0.69614 0.0
Co19 Co 0.12555 0.25415 0.63108 0.0
O20 O 0.06655 0.21859 0.66585 0.0
C21 C 0.09037 0.35195 0.58235 0.0
C22 C 0.0862 0.45258 0.68898 0.0
C23 C 0.03446 0.24636 0.69057 0.0
O24 O 0.06333 0.36785 0.61698 0.0
O25 O 0.1233 0.31141 0.58329 0.0
O26 O 0.13301 0.34549 0.73472 0.0
O27 O 0.14969 0.3155 0.66682 0.0
Co28 Co 0.77862 0.08819 0.17987 0.0
O29 O 0.70889 0.1244 0.17445 0.0
O30 O 0.7204 0.04 0.19895 0.0
C31 C 0.82235 0.15955 0.21034 0.0
O32 O 0.8447 0.03806 0.19307 0.0
Co33 Co 0.88213 0.13234 0.13084 0.0
O34 O 0.92118 0.08138 0.17135 0.0
C35 C 0.78679 0.09103 0.08148 0.0
C36 C 0.6871 0.07979 0.18936 0.0
C37 C 0.8973 0.04281 0.19222 0.0
O38 O 0.77195 0.063 0.11585 0.0
O39 O 0.82574 0.12567 0.08262 0.0
O40 O 0.79339 0.12771 0.23596 0.0
O41 O 0.82041 0.14909 0.16837 0.0
Co42 Co 0.05316 0.77828 0.6792 0.0
O43 O 0.01831 0.70819 0.67473 0.0
O44 O 0.10338 0.72118 0.69739 0.0
C45 C 0.9819 0.82099 0.71097 0.0
O46 O 0.10215 0.84504 0.69112 0.0
Co47 Co 1.00515 0.88048 0.6306 0.0
O48 O 0.05703 0.92066 0.66949 0.0
C49 C 0.04705 0.78564 0.58084 0.0
C50 C 0.06394 0.68729 0.68869 0.0
C51 C 0.09657 0.89749 0.68988 0.0
O52 O 0.07644 0.77165 0.61475 0.0
O53 O 0.01145 0.82387 0.58251 0.0
O54 O 0.01517 0.79281 0.73607 0.0
O55 O 0.99103 0.81885 0.6688 0.0
Co56 Co 0.36048 0.08525 0.80272 0.0
O57 O 0.43046 0.1201 0.80857 0.0
O58 O 0.41811 0.03541 0.78485 0.0
C59 C 0.31859 0.15704 0.7711 0.0
O60 O 0.29404 0.03632 0.78928 0.0
Co61 Co 0.25667 0.13237 0.84981 0.0
O62 O 0.21784 0.08214 0.80861 0.0
C63 C 0.35044 0.09008 0.90094 0.0
C64 C 0.45176 0.07477 0.79438 0.0
C65 C 0.24161 0.04258 0.78874 0.0
O66 O 0.36564 0.06119 0.86707 0.0
O67 O 0.31186 0.12529 0.89892 0.0
O68 O 0.34723 0.12408 0.74604 0.0
O69 O 0.3196 0.14712 0.81317 0.0
Co70 Co 0.05027 0.36021 0.30325 0.0
O71 O 0.01416 0.43001 0.30815 0.0
O72 O 0.09869 0.41808 0.28391 0.0
C73 C 0.97896 0.31631 0.27286 0.0
O74 O 0.10034 0.29395 0.29057 0.0
Co75 Co 1.0057 0.25744 0.35292 0.0
O76 O 0.05713 0.21782 0.31312 0.0
C77 C 0.0471 0.35309 0.40173 0.0
C78 C 0.0589 0.45154 0.29317 0.0
C79 C 0.09572 0.24139 0.29203 0.0
O80 O 0.07526 0.36747 0.36729 0.0
O81 O 0.01226 0.3143 0.40077 0.0
O82 O 0.01097 0.34498 0.24717 0.0
O83 O 0.98918 0.31867 0.31486 0.0
Co84 Co 0.77847 0.04831 0.80286 0.0
O85 O 0.71016 0.00996 0.81029 0.0
O86 O 0.71857 0.09354 0.7831 0.0
C87 C 0.82533 0.97801 0.774 0.0
O88 O 0.84102 0.10051 0.78675 0.0
Co89 Co 0.88565 0.01416 0.8514 0.0
O90 O 0.92103 0.07314 0.81651 0.0
C91 C 0.78794 0.04894 0.90057 0.0
C92 C 0.68677 0.05343 0.79432 0.0
C93 C 0.89308 0.10534 0.79206 0.0
O94 O 0.77186 0.07611 0.8661 0.0
O95 O 0.82857 0.0161 0.89938 0.0
O96 O 0.79384 0.00705 0.74801 0.0
O97 O 0.82415 0.99017 0.81576 0.0
Co98 Co 0.08872 0.77794 0.30182 0.0
O99 O 0.12478 0.70819 0.30726 0.0
O100 O 0.04052 0.7199 0.2823 0.0
C101 C 0.16045 0.82154 0.27197 0.0
O102 O 0.0388 0.84415 0.2886 0.0
Co103 Co 0.13284 0.88104 0.35155 0.0
O104 O 0.08161 0.92044 0.31152 0.0
C105 C 0.09114 0.78548 0.40014 0.0
C106 C 0.0802 0.68653 0.29207 0.0
C107 C 0.04326 0.89674 0.29016 0.0
O108 O 0.06307 0.7711 0.36562 0.0
O109 O 0.12604 0.82421 0.39931 0.0
O110 O 0.12872 0.79279 0.24604 0.0
O111 O 0.14966 0.81949 0.31386 0.0
C112 C 0.37834 0.01569 0.00696 0.0
C113 C 0.37358 0.05903 0.03771 0.0
H114 H 0.37604 0.99188 0.93793 0.0
C115 C 0.37673 0.11282 0.0224 0.0
H116 H 0.37658 0.97376 0.01836 0.0
C117 C 0.37591 0.12305 0.97647 0.0
C118 C 0.37263 0.07957 0.94573 0.0
H119 H 0.37325 0.14675 0.04553 0.0
H120 H 0.37242 0.1649 0.96511 0.0
C121 C 0.37823 0.02593 0.96102 0.0
C122 C 0.12307 0.37849 0.50716 0.0
C123 C 0.07976 0.37535 0.53803 0.0
H124 H 0.14633 0.37547 0.43804 0.0
C125 C 0.02601 0.38109 0.52293 0.0
H126 H 0.16499 0.37472 0.51839 0.0
C127 C 0.01545 0.38103 0.47701 0.0
C128 C 0.05859 0.37596 0.44612 0.0
H129 H 0.99211 0.37888 0.54615 0.0
H130 H 0.97341 0.37922 0.46578 0.0
C131 C 0.11252 0.37919 0.46125 0.0
C132 C 0.7589 0.11283 0.96036 0.0
C133 C 0.76466 0.05922 0.945 0.0
H134 H 0.76074 0.16503 0.01776 0.0
C135 C 0.7616 0.01574 0.97566 0.0
H136 H 0.76106 0.14687 0.9373 0.0
C137 C 0.76091 0.02598 0.02163 0.0
C138 C 0.76405 0.07979 0.03701 0.0
H139 H 0.76541 0.97392 0.96423 0.0
H140 H 0.76467 0.99206 0.04468 0.0
C141 C 0.75896 0.12309 0.00633 0.0
C142 C 0.12258 0.75771 0.47544 0.0
C143 C 0.07954 0.7626 0.44443 0.0
H144 H 0.14566 0.75983 0.54461 0.0
C145 C 0.02557 0.75906 0.45935 0.0
H146 H 0.16465 0.75968 0.46434 0.0
C147 C 0.01482 0.75963 0.50521 0.0
C148 C 0.05798 0.76307 0.53624 0.0
H149 H 0.99185 0.76255 0.43601 0.0
H150 H 0.97281 0.76297 0.51628 0.0
C151 C 0.11183 0.75758 0.5213 0.0
C152 C 0.54548 0.01778 0.19357 0.0
C153 C 0.51193 0.06446 0.19326 0.0
H154 H 0.62717 0.98597 0.1935 0.0
C155 C 0.53652 0.11614 0.19414 0.0
H156 H 0.5277 0.97736 0.19306 0.0
C157 C 0.59348 0.12102 0.19362 0.0
C158 C 0.62703 0.07434 0.19314 0.0
H159 H 0.51178 0.15283 0.19379 0.0
H160 H 0.61126 0.16144 0.19313 0.0
C161 C 0.60244 0.02266 0.19398 0.0
C162 C 0.12777 0.54614 0.6898 0.0
C163 C 0.08132 0.51265 0.69227 0.0
H164 H 0.15884 0.62796 0.6877 0.0
C165 C 0.02966 0.53716 0.69603 0.0
H166 H 0.16815 0.52835 0.68701 0.0
C167 C 0.02432 0.59394 0.69568 0.0
C168 C 0.07059 0.62747 0.69247 0.0
H169 H 0.9931 0.51248 0.69791 0.0
H170 H 0.98379 0.61159 0.69749 0.0
C171 C 0.12249 0.60309 0.69038 0.0
C172 C 0.5933 0.01156 0.79308 0.0
C173 C 0.62664 0.05815 0.79122 0.0
H174 H 0.51154 0.98016 0.79457 0.0
C175 C 0.60191 0.10976 0.78815 0.0
H176 H 0.61126 0.97123 0.79534 0.0
C177 C 0.54508 0.11487 0.7885 0.0
C178 C 0.51169 0.06843 0.79098 0.0
H179 H 0.62648 0.14641 0.78678 0.0
H180 H 0.52727 0.15534 0.78716 0.0
C181 C 0.53629 0.01663 0.79247 0.0
C182 C 0.01784 0.54512 0.28827 0.0
C183 C 0.06449 0.51151 0.289 0.0
H184 H 0.98618 0.62682 0.28773 0.0
C185 C 0.11625 0.53597 0.28807 0.0
H186 H 0.97737 0.52743 0.28879 0.0
C187 C 0.12125 0.59288 0.28823 0.0
C188 C 0.0746 0.6265 0.28838 0.0
H189 H 0.15292 0.51119 0.28873 0.0
H190 H 0.16172 0.61057 0.28875 0.0
C191 C 0.02284 0.60203 0.2875 0.0
C192 C 0.18721 0.22311 0.25383 0.0
C193 C 0.13487 0.20557 0.26712 0.0
H194 H 0.26282 0.20197 0.2209 0.0
C195 C 0.119 0.15207 0.25615 0.0
H196 H 0.20083 0.264 0.26174 0.0
C197 C 0.15375 0.11728 0.23249 0.0
C198 C 0.20615 0.13424 0.21929 0.0
H199 H 0.07905 0.13689 0.26538 0.0
H200 H 0.1394 0.07653 0.22486 0.0
C201 C 0.22278 0.18753 0.23058 0.0
C202 C 0.99167 0.21907 0.76323 0.0
C203 C 0.99238 0.21639 0.71622 0.0
H204 H 0.96017 0.18492 0.8243 0.0
C205 C 0.95675 0.18016 0.69443 0.0
H206 H 0.01934 0.24607 0.78081 0.0
C207 C 0.92163 0.14663 0.71923 0.0
C208 C 0.92297 0.14731 0.76627 0.0
H209 H 0.95694 0.177 0.65823 0.0
H210 H 0.89557 0.11804 0.70168 0.0
C211 C 0.95801 0.18409 0.78806 0.0
C212 C 0.95182 0.91494 0.25184 0.0
C213 C 1.00416 0.93247 0.26516 0.0
H214 H 0.87614 0.93612 0.21903 0.0
C215 C 0.02002 0.98599 0.25427 0.0
H216 H 0.93821 0.87405 0.2597 0.0
C217 C 0.98523 0.0208 0.23072 0.0
C218 C 0.9328 1.00386 0.21753 0.0
H219 H 0.05997 1.00116 0.26354 0.0
H220 H 0.99955 0.06157 0.22319 0.0
C221 C 0.9162 0.95054 0.2287 0.0
C222 C 0.18709 0.91493 0.72947 0.0
C223 C 0.13573 0.93345 0.71437 0.0
H224 H 0.26161 0.93491 0.76427 0.0
C225 C 0.12068 0.98772 0.72368 0.0
H226 H 0.20006 0.87342 0.72291 0.0
C227 C 0.15518 0.02223 0.7477 0.0
C228 C 0.20644 1.00414 0.76289 0.0
H229 H 0.08153 1.00371 0.71297 0.0
H230 H 0.14156 0.0636 0.75409 0.0
C231 C 0.22239 0.95016 0.75308 0.0
C232 C 0.86801 0.92456 0.71212 0.0
C233 C 0.86355 0.93617 0.75779 0.0
H234 H 0.90869 0.87829 0.66173 0.0
C235 C 0.89679 0.90782 0.7886 0.0
H236 H 0.84279 0.94557 0.68778 0.0
C237 C 0.93477 0.86931 0.77383 0.0
C238 C 0.93998 0.85857 0.72805 0.0
H239 H 0.89397 0.91575 0.82422 0.0
H240 H 0.96051 0.84875 0.79806 0.0
C241 C 0.90583 0.88603 0.69738 0.0
C242 C 0.2499 0.90498 0.19576 0.0
C243 C 0.27967 0.9363 0.22698 0.0
H244 H 0.18859 0.84402 0.1854 0.0
C245 C 0.27162 0.9278 0.27275 0.0
H246 H 0.25558 0.91036 0.16006 0.0
C247 C 0.23347 0.88948 0.28707 0.0
C248 C 0.20261 0.85925 0.25583 0.0
H249 H 0.29407 0.95119 0.2974 0.0
H250 H 0.2277 0.88414 0.32276 0.0
C251 C 0.21159 0.86686 0.21007 0.0
C252 C 0.21573 0.27147 0.77017 0.0
C253 C 0.20402 0.27601 0.72454 0.0
H254 H 0.26192 0.23057 0.82043 0.0
C255 C 0.23232 0.24284 0.69361 0.0
H256 H 0.19479 0.29666 0.7946 0.0
C257 C 0.27078 0.20475 0.70826 0.0
C258 C 0.28149 0.19936 0.75403 0.0
H259 H 0.22431 0.24576 0.65801 0.0
H260 H 0.29122 0.17897 0.68398 0.0
C261 C 0.25419 0.23354 0.78478 0.0
C262 C 0.92867 0.27064 0.21054 0.0
C263 C 0.93709 0.27843 0.25638 0.0
H264 H 0.88513 0.2271 0.16017 0.0
C265 C 0.90585 0.2483 0.28735 0.0
H266 H 0.952 0.29337 0.18605 0.0
C267 C 0.86777 0.21003 0.27272 0.0
C268 C 0.86016 0.20146 0.22688 0.0
H269 H 0.91119 0.25374 0.32309 0.0
H270 H 0.84493 0.18682 0.2972 0.0
C271 C 0.89043 0.23256 0.19591 0.0
loop_
_geom_bond_atom_site_label_1
_geom_bond_atom_site_label_2
_geom_bond_distance
_geom_bond_site_symmetry_2
_ccdc_geom_bond_type
Co0 O1 2.216 1_545 S
Co0 O2 2.091 . S
Co0 O4 2.004 . S
Co0 O10 2.021 . S
Co0 O12 2.137 1_545 S
Co0 O13 2.244 1_545 S
O1 Co0 2.216 1_565 S
O1 C8 1.247 1_565 S
O2 Co0 2.091 . S
O2 C8 1.261 . S
C3 O12 1.247 . S
C3 O13 1.272 . S
O4 Co0 2.004 . S
O4 C9 1.259 . S
Co5 O6 2.061 . S
Co5 O11 2.052 . S
Co5 O13 2.135 1_545 S
O6 Co5 2.061 . S
O6 C9 1.235 . S
C7 O10 1.238 . S
C7 O11 1.241 . S
C8 O1 1.247 1_545 S
C8 O2 1.261 . S
C9 O4 1.259 . S
C9 O6 1.235 . S
O10 Co0 2.021 . S
O10 C7 1.238 . S
O11 Co5 2.052 . S
O11 C7 1.241 . S
O12 Co0 2.137 1_565 S
O12 C3 1.247 . S
O13 Co0 2.244 1_565 S
O13 C3 1.272 . S
O13 Co5 2.135 1_565 S
Co14 O15 2.216 . S
Co14 O16 2.091 . S
Co14 O18 2.004 . S
Co14 O24 2.021 . S
Co14 O26 2.137 . S
Co14 O27 2.244 . S
O15 Co14 2.216 . S
O15 C22 1.247 . S
O16 Co14 2.091 . S
O16 C22 1.261 . S
C17 O26 1.247 . S
C17 O27 1.272 . S
O18 Co14 2.004 . S
O18 C23 1.259 . S
Co19 O20 2.061 . S
Co19 O25 2.052 . S
Co19 O27 2.135 . S
O20 Co19 2.061 . S
O20 C23 1.235 . S
C21 O24 1.238 . S
C21 O25 1.241 . S
C22 O15 1.247 . S
C22 O16 1.261 . S
C23 O18 1.259 . S
C23 O20 1.235 . S
O24 Co14 2.021 . S
O24 C21 1.238 . S
O25 Co19 2.052 . S
O25 C21 1.241 . S
O26 Co14 2.137 . S
O26 C17 1.247 . S
O27 Co14 2.244 . S
O27 C17 1.272 . S
O27 Co19 2.135 . S
Co28 O29 2.216 . S
Co28 O30 2.091 . S
Co28 O32 2.004 . S
Co28 O38 2.021 . S
Co28 O40 2.137 . S
Co28 O41 2.244 . S
O29 Co28 2.216 . S
O29 C36 1.247 . S
O30 Co28 2.091 . S
O30 C36 1.261 . S
C31 O40 1.247 . S
C31 O41 1.272 . S
O32 Co28 2.004 . S
O32 C37 1.259 . S
Co33 O34 2.061 . S
Co33 O39 2.052 . S
Co33 O41 2.135 . S
O34 Co33 2.061 . S
O34 C37 1.235 . S
C35 O38 1.238 . S
C35 O39 1.241 . S
C36 O29 1.247 . S
C36 O30 1.261 . S
C37 O32 1.259 . S
C37 O34 1.235 . S
O38 Co28 2.021 . S
O38 C35 1.238 . S
O39 Co33 2.052 . S
O39 C35 1.241 . S
O40 Co28 2.137 . S
O40 C31 1.247 . S
O41 Co28 2.244 . S
O41 C31 1.272 . S
O41 Co33 2.135 . S
Co42 O43 2.216 1_455 S
Co42 O44 2.091 . S
Co42 O46 2.004 . S
Co42 O52 2.021 . S
Co42 O54 2.137 1_455 S
Co42 O55 2.244 1_455 S
O43 Co42 2.216 1_655 S
O43 C50 1.247 1_655 S
O44 Co42 2.091 . S
O44 C50 1.261 . S
C45 O54 1.247 . S
C45 O55 1.272 . S
O46 Co42 2.004 . S
O46 C51 1.259 . S
Co47 O48 2.061 . S
Co47 O53 2.052 . S
Co47 O55 2.135 1_455 S
O48 Co47 2.061 . S
O48 C51 1.235 . S
C49 O52 1.238 . S
C49 O53 1.241 . S
C50 O43 1.247 1_455 S
C50 O44 1.261 . S
C51 O46 1.259 . S
C51 O48 1.235 . S
O52 Co42 2.021 . S
O52 C49 1.238 . S
O53 Co47 2.052 . S
O53 C49 1.241 . S
O54 Co42 2.137 1_655 S
O54 C45 1.247 . S
O55 Co42 2.244 1_655 S
O55 C45 1.272 . S
O55 Co47 2.135 1_655 S
Co56 O57 2.216 . S
Co56 O58 2.091 . S
Co56 O60 2.004 . S
Co56 O66 2.021 . S
Co56 O68 2.137 . S
Co56 O69 2.244 . S
O57 Co56 2.216 . S
O57 C64 1.247 . S
O58 Co56 2.091 . S
O58 C64 1.261 . S
C59 O68 1.247 . S
C59 O69 1.272 . S
O60 Co56 2.004 . S
O60 C65 1.259 . S
Co61 O62 2.061 . S
Co61 O67 2.052 . S
Co61 O69 2.135 . S
O62 Co61 2.061 . S
O62 C65 1.235 . S
C63 O66 1.238 . S
C63 O67 1.241 . S
C64 O57 1.247 . S
C64 O58 1.261 . S
C65 O60 1.259 . S
C65 O62 1.235 . S
O66 Co56 2.021 . S
O66 C63 1.238 . S
O67 Co61 2.052 . S
O67 C63 1.241 . S
O68 Co56 2.137 . S
O68 C59 1.247 . S
O69 Co56 2.244 . S
O69 C59 1.272 . S
O69 Co61 2.135 . S
Co70 O71 2.216 1_455 S
Co70 O72 2.091 . S
Co70 O74 2.004 . S
Co70 O80 2.021 . S
Co70 O82 2.137 1_455 S
Co70 O83 2.244 1_455 S
O71 Co70 2.216 1_655 S
O71 C78 1.247 1_655 S
O72 Co70 2.091 . S
O72 C78 1.261 . S
C73 O82 1.247 . S
C73 O83 1.272 . S
O74 Co70 2.004 . S
O74 C79 1.259 . S
Co75 O76 2.061 . S
Co75 O81 2.052 . S
Co75 O83 2.135 1_455 S
O76 Co75 2.061 . S
O76 C79 1.235 . S
C77 O80 1.238 . S
C77 O81 1.241 . S
C78 O71 1.247 1_455 S
C78 O72 1.261 . S
C79 O74 1.259 . S
C79 O76 1.235 . S
O80 Co70 2.021 . S
O80 C77 1.238 . S
O81 Co75 2.052 . S
O81 C77 1.241 . S
O82 Co70 2.137 1_655 S
O82 C73 1.247 . S
O83 Co70 2.244 1_655 S
O83 C73 1.272 . S
O83 Co75 2.135 1_655 S
Co84 O85 2.216 1_545 S
Co84 O86 2.091 . S
Co84 O88 2.004 . S
Co84 O94 2.021 . S
Co84 O96 2.137 1_545 S
Co84 O97 2.244 1_545 S
O85 Co84 2.216 1_565 S
O85 C92 1.247 1_565 S
O86 Co84 2.091 . S
O86 C92 1.261 . S
C87 O96 1.247 . S
C87 O97 1.272 . S
O88 Co84 2.004 . S
O88 C93 1.259 . S
Co89 O90 2.061 . S
Co89 O95 2.052 . S
Co89 O97 2.135 1_545 S
O90 Co89 2.061 . S
O90 C93 1.235 . S
C91 O94 1.238 . S
C91 O95 1.241 . S
C92 O85 1.247 1_545 S
C92 O86 1.261 . S
C93 O88 1.259 . S
C93 O90 1.235 . S
O94 Co84 2.021 . S
O94 C91 1.238 . S
O95 Co89 2.052 . S
O95 C91 1.241 . S
O96 Co84 2.137 1_565 S
O96 C87 1.247 . S
O97 Co84 2.244 1_565 S
O97 C87 1.272 . S
O97 Co89 2.135 1_565 S
Co98 O99 2.216 . S
Co98 O100 2.091 . S
Co98 O102 2.004 . S
Co98 O108 2.021 . S
Co98 O110 2.137 . S
Co98 O111 2.244 . S
O99 Co98 2.216 . S
O99 C106 1.247 . S
O100 Co98 2.091 . S
O100 C106 1.261 . S
C101 O110 1.247 . S
C101 O111 1.272 . S
O102 Co98 2.004 . S
O102 C107 1.259 . S
Co103 O104 2.061 . S
Co103 O109 2.052 . S
Co103 O111 2.135 . S
O104 Co103 2.061 . S
O104 C107 1.235 . S
C105 O108 1.238 . S
C105 O109 1.241 . S
C106 O99 1.247 . S
C106 O100 1.261 . S
C107 O102 1.259 . S
C107 O104 1.235 . S
O108 Co98 2.021 . S
O108 C105 1.238 . S
O109 Co103 2.052 . S
O109 C105 1.241 . S
O110 Co98 2.137 . S
O110 C101 1.247 . S
O111 Co98 2.244 . S
O111 C101 1.272 . S
O111 Co103 2.135 . S
C112 C113 1.387 . S
C112 H116 0.950 . S
C112 C121 1.390 1_554 S
C113 C112 1.387 . S
C113 C115 1.387 . S
H114 C121 0.950 . S
C115 C113 1.387 . S
C115 C117 1.390 1_554 S
C115 H119 0.950 . S
H116 C112 0.950 . S
C117 C115 1.390 1_556 S
C117 C118 1.387 . S
C117 H120 0.950 . S
C118 C117 1.387 . S
C118 C121 1.387 . S
H119 C115 0.950 . S
H120 C117 0.950 . S
C121 C112 1.390 1_556 S
C121 H114 0.950 . S
C121 C118 1.387 . S
C122 C123 1.387 . S
C122 H126 0.950 . S
C122 C131 1.390 . S
C123 C122 1.387 . S
C123 C125 1.387 . S
H124 C131 0.950 . S
C125 C123 1.387 . S
C125 C127 1.390 . S
C125 H129 0.950 . S
H126 C122 0.950 . S
C127 C125 1.390 . S
C127 C128 1.387 . S
C127 H130 0.950 . S
C128 C127 1.387 . S
C128 C131 1.387 . S
H129 C125 0.950 . S
H130 C127 0.950 . S
C131 C122 1.390 . S
C131 H124 0.950 . S
C131 C128 1.387 . S
C132 C133 1.387 . S
C132 H136 0.950 . S
C132 C141 1.390 1_556 S
C133 C132 1.387 . S
C133 C135 1.387 . S
H134 C141 0.950 . S
C135 C133 1.387 . S
C135 C137 1.390 1_556 S
C135 H139 0.950 . S
H136 C132 0.950 . S
C137 C135 1.390 1_554 S
C137 C138 1.387 . S
C137 H140 0.950 . S
C138 C137 1.387 . S
C138 C141 1.387 . S
H139 C135 0.950 . S
H140 C137 0.950 . S
C141 C132 1.390 1_554 S
C141 H134 0.950 . S
C141 C138 1.387 . S
C142 C143 1.387 . S
C142 H146 0.950 . S
C142 C151 1.390 . S
C143 C142 1.387 . S
C143 C145 1.387 . S
H144 C151 0.950 . S
C145 C143 1.387 . S
C145 C147 1.390 . S
C145 H149 0.950 . S
H146 C142 0.950 . S
C147 C145 1.390 . S
C147 C148 1.387 . S
C147 H150 0.950 . S
C148 C147 1.387 . S
C148 C151 1.387 . S
H149 C145 0.950 . S
H150 C147 0.950 . S
C151 C142 1.390 . S
C151 H144 0.950 . S
C151 C148 1.387 . S
C152 C153 1.387 . S
C152 H156 0.950 . S
C152 C161 1.390 . S
C153 C152 1.387 . S
C153 C155 1.387 . S
H154 C161 0.950 . S
C155 C153 1.387 . S
C155 C157 1.390 . S
C155 H159 0.950 . S
H156 C152 0.950 . S
C157 C155 1.390 . S
C157 C158 1.387 . S
C157 H160 0.950 . S
C158 C157 1.387 . S
C158 C161 1.387 . S
H159 C155 0.950 . S
H160 C157 0.950 . S
C161 C152 1.390 . S
C161 H154 0.950 . S
C161 C158 1.387 . S
C162 C163 1.387 . S
C162 H166 0.950 . S
C162 C171 1.390 . S
C163 C162 1.387 . S
C163 C165 1.387 . S
H164 C171 0.950 . S
C165 C163 1.387 . S
C165 C167 1.390 . S
C165 H169 0.950 . S
H166 C162 0.950 . S
C167 C165 1.390 . S
C167 C168 1.387 . S
C167 H170 0.950 . S
C168 C167 1.387 . S
C168 C171 1.387 . S
H169 C165 0.950 . S
H170 C167 0.950 . S
C171 C162 1.390 . S
C171 H164 0.950 . S
C171 C168 1.387 . S
C172 C173 1.387 . S
C172 H176 0.950 . S
C172 C181 1.390 . S
C173 C172 1.387 . S
C173 C175 1.387 . S
H174 C181 0.950 . S
C175 C173 1.387 . S
C175 C177 1.390 . S
C175 H179 0.950 . S
H176 C172 0.950 . S
C177 C175 1.390 . S
C177 C178 1.387 . S
C177 H180 0.950 . S
C178 C177 1.387 . S
C178 C181 1.387 . S
H179 C175 0.950 . S
H180 C177 0.950 . S
C181 C172 1.390 . S
C181 H174 0.950 . S
C181 C178 1.387 . S
C182 C183 1.387 . S
C182 H186 0.950 . S
C182 C191 1.390 . S
C183 C182 1.387 . S
C183 C185 1.387 . S
H184 C191 0.950 . S
C185 C183 1.387 . S
C185 C187 1.390 . S
C185 H189 0.950 . S
H186 C182 0.950 . S
C187 C185 1.390 . S
C187 C188 1.387 . S
C187 H190 0.950 . S
C188 C187 1.387 . S
C188 C191 1.387 . S
H189 C185 0.950 . S
H190 C187 0.950 . S
C191 C182 1.390 . S
C191 H184 0.950 . S
C191 C188 1.387 . S
C192 C193 1.387 . S
C192 H196 0.950 . S
C192 C201 1.390 . S
C193 C192 1.387 . S
C193 C195 1.387 . S
H194 C201 0.950 . S
C195 C193 1.387 . S
C195 C197 1.390 . S
C195 H199 0.950 . S
H196 C192 0.950 . S
C197 C195 1.390 . S
C197 C198 1.387 . S
C197 H200 0.950 . S
C198 C197 1.387 . S
C198 C201 1.387 . S
H199 C195 0.950 . S
H200 C197 0.950 . S
C201 C192 1.390 . S
C201 H194 0.950 . S
C201 C198 1.387 . S
C202 C203 1.387 . S
C202 H206 0.950 . S
C202 C211 1.390 . S
C203 C202 1.387 . S
C203 C205 1.387 . S
H204 C211 0.950 . S
C205 C203 1.387 . S
C205 C207 1.390 . S
C205 H209 0.950 . S
H206 C202 0.950 . S
C207 C205 1.390 . S
C207 C208 1.387 . S
C207 H210 0.950 . S
C208 C207 1.387 . S
C208 C211 1.387 . S
H209 C205 0.950 . S
H210 C207 0.950 . S
C211 C202 1.390 . S
C211 H204 0.950 . S
C211 C208 1.387 . S
C212 C213 1.387 . S
C212 H216 0.950 . S
C212 C221 1.390 . S
C213 C212 1.387 . S
C213 C215 1.387 . S
H214 C221 0.950 . S
C215 C213 1.387 . S
C215 C217 1.390 . S
C215 H219 0.950 . S
H216 C212 0.950 . S
C217 C215 1.390 . S
C217 C218 1.387 . S
C217 H220 0.950 1_565 S
C218 C217 1.387 . S
C218 C221 1.387 . S
H219 C215 0.950 . S
H220 C217 0.950 1_545 S
C221 C212 1.390 . S
C221 H214 0.950 . S
C221 C218 1.387 . S
C222 C223 1.387 . S
C222 H226 0.950 . S
C222 C231 1.390 . S
C223 C222 1.387 . S
C223 C225 1.387 . S
H224 C231 0.950 . S
C225 C223 1.387 . S
C225 C227 1.390 . S
C225 H229 0.950 . S
H226 C222 0.950 . S
C227 C225 1.390 . S
C227 C228 1.387 . S
C227 H230 0.950 1_565 S
C228 C227 1.387 . S
C228 C231 1.387 . S
H229 C225 0.950 . S
H230 C227 0.950 1_545 S
C231 C222 1.390 . S
C231 H224 0.950 . S
C231 C228 1.387 . S
C232 C233 1.387 . S
C232 H236 0.950 . S
C232 C241 1.390 . S
C233 C232 1.387 . S
C233 C235 1.387 . S
H234 C241 0.950 . S
C235 C233 1.387 . S
C235 C237 1.390 . S
C235 H239 0.950 . S
H236 C232 0.950 . S
C237 C235 1.390 . S
C237 C238 1.387 . S
C237 H240 0.950 . S
C238 C237 1.387 . S
C238 C241 1.387 . S
H239 C235 0.950 . S
H240 C237 0.950 . S
C241 C232 1.390 . S
C241 H234 0.950 . S
C241 C238 1.387 . S
C242 C243 1.387 . S
C242 H246 0.950 . S
C242 C251 1.390 . S
C243 C242 1.387 . S
C243 C245 1.387 . S
H244 C251 0.950 . S
C245 C243 1.387 . S
C245 C247 1.390 . S
C245 H249 0.950 . S
H246 C242 0.950 . S
C247 C245 1.390 . S
C247 C248 1.387 . S
C247 H250 0.950 . S
C248 C247 1.387 . S
C248 C251 1.387 . S
H249 C245 0.950 . S
H250 C247 0.950 . S
C251 C242 1.390 . S
C251 H244 0.950 . S
C251 C248 1.387 . S
C252 C253 1.387 . S
C252 H256 0.950 . S
C252 C261 1.390 . S
C253 C252 1.387 . S
C253 C255 1.387 . S
H254 C261 0.950 . S
C255 C253 1.387 . S
C255 C257 1.390 . S
C255 H259 0.950 . S
H256 C252 0.950 . S
C257 C255 1.390 . S
C257 C258 1.387 . S
C257 H260 0.950 . S
C258 C257 1.387 . S
C258 C261 1.387 . S
H259 C255 0.950 . S
H260 C257 0.950 . S
C261 C252 1.390 . S
C261 H254 0.950 . S
C261 C258 1.387 . S
C262 C263 1.387 . S
C262 H266 0.950 . S
C262 C271 1.390 . S
C263 C262 1.387 . S
C263 C265 1.387 . S
H264 C271 0.950 . S
C265 C263 1.387 . S
C265 C267 1.390 . S
C265 H269 0.950 . S
H266 C262 0.950 . S
C267 C265 1.390 . S
C267 C268 1.387 . S
C267 H270 0.950 . S
C268 C267 1.387 . S
C268 C271 1.387 . S
H269 C265 0.950 . S
H270 C267 0.950 . S
C271 C262 1.390 . S
C271 H264 0.950 . S
C271 C268 1.387 . S
C113 C7 1.527 . S
C118 C63 1.527 . S
C123 C21 1.527 . S
C128 C77 1.527 . S
C133 C91 1.527 . S
C138 C35 1.527 . S
C143 C105 1.529 . S
C148 C49 1.529 . S
C153 C8 1.434 . S
C158 C36 1.434 . S
C163 C22 1.438 . S
C168 C50 1.438 . S
C173 C92 1.434 . S
C178 C64 1.434 . S
C183 C78 1.434 . S
C188 C106 1.434 . S
C193 C79 1.475 . S
C198 C9 1.476 . S
C203 C23 1.474 1_655 S
C208 C93 1.476 . S
C213 C107 1.474 1_655 S
C218 C37 1.476 1_565 S
C223 C51 1.474 . S
C228 C65 1.476 1_565 S
C233 C87 1.341 . S
C238 C45 1.339 . S
C243 C3 1.339 . S
C248 C101 1.341 . S
C253 C17 1.341 . S
C258 C59 1.339 . S
C263 C73 1.341 . S
C268 C31 1.339 . S
