# Generated by pormake.
# Topology dft, (4)-cn, num edge types: 1
# Building blocks:
#     Node 0, Type 0, BuildingBlock: QUQFOY_clean_sbu_3, # of connection points: 4
#     Node 1, Type 0, BuildingBlock: QUQFOY_clean_sbu_3, # of connection points: 4
#     Node 2, Type 0, BuildingBlock: QUQFOY_clean_sbu_3, # of connection points: 4
#     Node 3, Type 0, BuildingBlock: QUQFOY_clean_sbu_3, # of connection points: 4
#     Node 4, Type 0, BuildingBlock: QUQFOY_clean_sbu_3, # of connection points: 4
#     Node 5, Type 0, BuildingBlock: QUQFOY_clean_sbu_3, # of connection points: 4
#     Node 6, Type 0, BuildingBlock: QUQFOY_clean_sbu_3, # of connection points: 4
#     Node 7, Type 0, BuildingBlock: QUQFOY_clean_sbu_3, # of connection points: 4
#     Edge 8, Type (0, 0), BuildingBlock: OJICUG_clean_linker_0, # of connection points: 2
#     Edge 9, Type (0, 0), BuildingBlock: OJICUG_clean_linker_0, # of connection points: 2
#     Edge 10, Type (0, 0), BuildingBlock: OJICUG_clean_linker_0, # of connection points: 2
#     Edge 11, Type (0, 0), BuildingBlock: OJICUG_clean_linker_0, # of connection points: 2
#     Edge 12, Type (0, 0), BuildingBlock: OJICUG_clean_linker_0, # of connection points: 2
#     Edge 13, Type (0, 0), BuildingBlock: OJICUG_clean_linker_0, # of connection points: 2
#     Edge 14, Type (0, 0), BuildingBlock: OJICUG_clean_linker_0, # of connection points: 2
#     Edge 15, Type (0, 0), BuildingBlock: OJICUG_clean_linker_0, # of connection points: 2
#     Edge 16, Type (0, 0), BuildingBlock: OJICUG_clean_linker_0, # of connection points: 2
#     Edge 17, Type (0, 0), BuildingBlock: OJICUG_clean_linker_0, # of connection points: 2
#     Edge 18, Type (0, 0), BuildingBlock: OJICUG_clean_linker_0, # of connection points: 2
#     Edge 19, Type (0, 0), BuildingBlock: OJICUG_clean_linker_0, # of connection points: 2
#     Edge 20, Type (0, 0), BuildingBlock: OJICUG_clean_linker_0, # of connection points: 2
#     Edge 21, Type (0, 0), BuildingBlock: OJICUG_clean_linker_0, # of connection points: 2
#     Edge 22, Type (0, 0), BuildingBlock: OJICUG_clean_linker_0, # of connection points: 2
#     Edge 23, Type (0, 0), BuildingBlock: OJICUG_clean_linker_0, # of connection points: 2
# Relax obj value: 0.179
# Max RMSD: 0.171
# Mean RMSD: 0.171
data_MOF--net-dft--node1-QUQFOY_clean_sbu_3--edge1-OJICUG_clean_linker_0
_symmetry_space_group_name_H-M    P1
_symmetry_Int_Tables_number       1
_symmetry_cell_setting            triclinic
loop_
_symmetry_equiv_pos_as_xyz
'x, y, z'
_cell_length_a     27.004499
_cell_length_b     26.924827
_cell_length_c     33.130161
_cell_angle_alpha  90.182558
_cell_angle_beta   89.923331
_cell_angle_gamma 90.021125
loop_
_atom_site_label
_atom_site_type_symbol
_atom_site_fract_x
_atom_site_fract_y
_atom_site_fract_z
_atom_type_partial_charge
C0 C 0.23006 0.93263 0.14451 0.0
O1 O 0.20389 0.94477 0.11432 0.0
Cd2 Cd 0.22154 0.01324 0.07225 0.0
O3 O 0.26965 0.95634 0.15321 0.0
Cd4 Cd 0.31768 0.02585 0.12196 0.0
C5 C 0.22275 0.10294 0.14594 0.0
O6 O 0.30527 -0.00626 0.05472 0.0
O7 O 0.3319 0.06878 0.05594 0.0
O8 O 0.39455 -0.01565 0.14198 0.0
C9 C 0.32387 0.02958 0.03562 0.0
O10 O 0.20148 0.0866 0.11428 0.0
C11 C 0.41728 0.02414 0.15114 0.0
O12 O 0.26434 0.08549 0.15684 0.0
O13 O 0.39279 0.06424 0.14865 0.0
C14 C 0.11563 0.22969 0.64418 0.0
O15 O 0.10315 0.20302 0.61421 0.0
Cd16 Cd 0.0346 0.22043 0.57228 0.0
O17 O 0.09212 0.26951 0.65281 0.0
Cd18 Cd 0.02245 0.31717 0.62183 0.0
C19 C 0.9454 0.22222 0.64597 0.0
O20 O 0.05413 0.30425 0.55452 0.0
O21 O -0.02049 0.33148 0.55589 0.0
O22 O 0.06406 0.39433 0.64179 0.0
C23 C 0.01846 0.32313 0.53552 0.0
O24 O 0.96151 0.20064 0.61431 0.0
C25 C 0.02447 0.41718 0.65109 0.0
O26 O 0.96301 0.26396 0.65682 0.0
O27 O -0.01555 0.39262 0.64869 0.0
C28 C 0.817 0.11659 0.14402 0.0
O29 O 0.84343 0.10379 0.11403 0.0
Cd30 Cd 0.82566 0.03501 0.072 0.0
O31 O 0.77717 0.09327 0.15267 0.0
Cd32 Cd 0.72919 0.02344 0.12163 0.0
C33 C 0.82376 0.94604 0.14573 0.0
O34 O 0.74216 0.05521 0.05451 0.0
O35 O 0.71444 -0.01943 0.05545 0.0
O36 O 0.65238 0.06525 0.14185 0.0
C37 C 0.72304 0.01962 0.03529 0.0
O38 O 0.84525 0.96193 0.11406 0.0
C39 C 0.62956 0.02555 0.15097 0.0
O40 O 0.7822 0.96384 0.15654 0.0
O41 O 0.65397 -0.01461 0.14836 0.0
C42 C 0.93138 0.81737 0.64483 0.0
O43 O 0.94391 0.84394 0.61492 0.0
Cd44 Cd 0.0125 0.82661 0.57287 0.0
O45 O 0.95494 0.77764 0.65339 0.0
Cd46 Cd 0.02481 0.73 0.62218 0.0
C47 C 0.1016 0.82519 0.64648 0.0
O48 O -0.00712 0.74272 0.55512 0.0
O49 O 0.06762 0.71589 0.55589 0.0
O50 O -0.01656 0.65284 0.64217 0.0
C51 C 0.02854 0.7241 0.53578 0.0
O52 O 0.08549 0.8466 0.6149 0.0
C53 C 0.02311 0.63006 0.65114 0.0
O54 O 0.08407 0.78346 0.65726 0.0
O55 O 0.06309 0.65465 0.64852 0.0
C56 C 0.23022 0.11627 0.75321 0.0
O57 O 0.20389 0.1041 0.78337 0.0
Cd58 Cd 0.22131 0.03554 0.82538 0.0
O59 O 0.2698 0.09253 0.74451 0.0
Cd60 Cd 0.31758 0.0229 0.77559 0.0
C61 C 0.22254 0.9459 0.75163 0.0
O62 O 0.30504 0.05493 0.84287 0.0
O63 O 0.33183 -0.02004 0.84156 0.0
O64 O 0.39442 0.06456 0.75548 0.0
C65 C 0.32369 0.01911 0.86191 0.0
O66 O 0.20123 0.96225 0.78331 0.0
C67 C 0.41718 0.02483 0.7462 0.0
O68 O 0.2642 0.96332 0.74072 0.0
O69 O 0.39273 -0.01531 0.74869 0.0
C70 C 0.93157 0.23121 0.25284 0.0
O71 O 0.94393 0.20472 0.28281 0.0
Cd72 Cd 0.01243 0.22218 0.32482 0.0
O73 O 0.95517 0.27095 0.24427 0.0
Cd74 Cd 0.02482 0.31882 0.27546 0.0
C75 C 0.10169 0.22374 0.25111 0.0
O76 O -0.007 0.30607 0.34264 0.0
O77 O 0.06776 0.33292 0.34156 0.0
O78 O -0.01672 0.39589 0.25567 0.0
C79 C 0.02874 0.32469 0.36183 0.0
O80 O 0.08549 0.20232 0.2827 0.0
C81 C 0.02288 0.41878 0.24658 0.0
O82 O 0.08419 0.26546 0.24033 0.0
O83 O 0.06292 0.3943 0.24903 0.0
C84 C 0.81632 0.93197 0.7534 0.0
O85 O 0.84257 0.94461 0.78348 0.0
Cd86 Cd 0.82491 0.01367 0.82521 0.0
O87 O 0.77678 0.95559 0.74458 0.0
Cd88 Cd 0.72896 0.02576 0.77536 0.0
C89 C 0.82409 0.10242 0.75121 0.0
O90 O 0.74114 -0.00585 0.84254 0.0
O91 O 0.71468 0.06922 0.84143 0.0
O92 O 0.65217 -0.01597 0.75517 0.0
C93 C 0.72252 0.03008 0.86166 0.0
O94 O 0.84524 0.08646 0.78296 0.0
C95 C 0.62942 0.02373 0.74603 0.0
O96 O 0.78249 0.08487 0.7403 0.0
O97 O 0.65387 0.06388 0.74861 0.0
C98 C 0.11442 0.81957 0.25338 0.0
O99 O 0.10159 0.84633 0.28322 0.0
Cd100 Cd 0.03294 0.82869 0.32513 0.0
O101 O 0.09116 0.77958 0.24483 0.0
Cd102 Cd 0.02141 0.73179 0.27582 0.0
C103 C 0.94409 0.82633 0.25141 0.0
O104 O 0.05304 0.74506 0.34302 0.0
O105 O -0.02141 0.71732 0.34193 0.0
O106 O 0.06324 0.65473 0.25584 0.0
C107 C 0.01754 0.72593 0.36215 0.0
O108 O 0.95995 0.84806 0.28305 0.0
C109 C 0.02371 0.63171 0.2467 0.0
O110 O 0.96191 0.78464 0.24066 0.0
O111 O -0.01638 0.65612 0.24919 0.0
C112 C 0.32954 0.07073 -0.0319 0.0
C113 C 0.32848 0.02726 -0.00874 0.0
H114 H 0.32844 0.102 0.90879 0.0
C115 C 0.32924 -0.01913 -0.02845 0.0
H116 H 0.32903 0.10692 -0.01753 0.0
C117 C 0.32965 -0.02203 0.92942 0.0
C118 C 0.32837 0.02144 0.90626 0.0
H119 H 0.32882 0.94671 -0.01127 0.0
H120 H 0.32923 0.94178 0.91505 0.0
C121 C 0.32903 0.06783 0.92597 0.0
C122 C -0.02257 0.32981 0.46802 0.0
C123 C 0.02078 0.32811 0.4912 0.0
H124 H 0.9462 0.32967 0.40867 0.0
C125 C 0.06702 0.32871 0.47154 0.0
H126 H 0.94135 0.32945 0.48236 0.0
C127 C 0.06988 0.32961 0.42942 0.0
C128 C 0.02651 0.32898 0.40622 0.0
H129 H 0.1011 0.32781 0.48875 0.0
H130 H 0.10594 0.32904 0.41507 0.0
C131 C -0.01972 0.32978 0.42589 0.0
C132 C 0.71606 -0.01844 0.92548 0.0
C133 C 0.71782 0.02792 0.90601 0.0
H134 H 0.71542 0.94246 -0.01823 0.0
C135 C 0.71785 0.0714 0.92938 0.0
H136 H 0.71563 0.9474 0.9081 0.0
C137 C 0.7185 0.06848 -0.0285 0.0
C138 C 0.7182 0.02207 -0.00903 0.0
H139 H 0.71918 0.10756 0.91519 0.0
H140 H 0.71997 0.10262 -0.01115 0.0
C141 C 0.71579 -0.02135 -0.03241 0.0
C142 C 0.06638 0.72046 0.42588 0.0
C143 C 0.02005 0.72086 0.40645 0.0
H144 H 0.10555 0.72022 0.48216 0.0
C145 C -0.02319 0.71886 0.42985 0.0
H146 H 0.10038 0.72159 0.40851 0.0
C147 C -0.02015 0.71882 0.47196 0.0
C148 C 0.02616 0.71983 0.4914 0.0
H149 H 0.94068 0.71906 0.41569 0.0
H150 H 0.94584 0.71871 0.48935 0.0
C151 C 0.06943 0.71948 0.46799 0.0
C152 C 0.49784 -0.02025 0.16085 0.0
C153 C 0.47115 0.02448 0.15933 0.0
H154 H 0.56908 0.94502 0.1601 0.0
C155 C 0.49722 0.06966 0.16087 0.0
H156 H 0.47882 0.94433 0.15998 0.0
C157 C 0.549 0.07009 0.16068 0.0
C158 C 0.57569 0.02533 0.15925 0.0
H159 H 0.47774 0.1048 0.15994 0.0
H160 H 0.56802 0.10549 0.15967 0.0
C161 C 0.54961 -0.01983 0.16095 0.0
C162 C 0.06888 0.49802 0.6606 0.0
C163 C 0.02425 0.47123 0.65933 0.0
H164 H 0.1035 0.5695 0.6597 0.0
C165 C -0.02078 0.49736 0.66116 0.0
H166 H 0.10417 0.47896 0.6595 0.0
C167 C -0.02119 0.54928 0.66101 0.0
C168 C 0.02342 0.57607 0.65933 0.0
H169 H 0.94418 0.4778 0.66043 0.0
H170 H 0.9435 0.56833 0.66025 0.0
C171 C 0.06847 0.54995 0.66075 0.0
C172 C 0.54947 0.06905 0.73624 0.0
C173 C 0.57557 0.02392 0.73778 0.0
H174 H 0.47865 0.10479 0.73745 0.0
C175 C 0.54891 -0.02087 0.73625 0.0
H176 H 0.56892 0.10422 0.73718 0.0
C177 C 0.49714 -0.02052 0.73615 0.0
C178 C 0.47104 0.02462 0.73788 0.0
H179 H 0.56795 0.94375 0.73712 0.0
H180 H 0.47769 0.94431 0.73701 0.0
C181 C 0.49769 0.0694 0.73644 0.0
C182 C -0.02161 0.49944 0.23689 0.0
C183 C 0.02307 0.4728 0.23845 0.0
H184 H 0.94358 0.57081 0.23757 0.0
C185 C 0.06805 0.49907 0.23697 0.0
H186 H 0.94313 0.48027 0.23771 0.0
C187 C 0.06833 0.551 0.23713 0.0
C188 C 0.02364 0.57764 0.2385 0.0
H189 H 0.10313 0.47962 0.23793 0.0
H190 H 0.10358 0.57017 0.23817 0.0
C191 C -0.02132 0.55136 0.23676 0.0
C192 C 0.1716 0.16375 0.24043 0.0
C193 C 0.13712 0.19737 0.22443 0.0
H194 H 0.22686 0.10865 0.22797 0.0
C195 C 0.13382 0.20253 0.18228 0.0
H196 H 0.17489 0.15901 0.27277 0.0
C197 C 0.16255 0.17276 0.15661 0.0
C198 C 0.19628 0.13838 0.17261 0.0
H199 H 0.10728 0.22787 0.16907 0.0
H200 H 0.15779 0.17602 0.12427 0.0
C201 C 0.20144 0.13511 0.21477 0.0
C202 C 0.91314 0.20164 0.71479 0.0
C203 C 0.90995 0.19603 0.67264 0.0
H204 H 0.88901 0.17577 0.77281 0.0
C205 C 0.87554 0.16217 0.65666 0.0
H206 H 0.93961 0.22717 0.72799 0.0
C207 C 0.84564 0.13378 0.68233 0.0
C208 C 0.85067 0.13754 0.72449 0.0
H209 H 0.87233 0.15707 0.62432 0.0
H210 H 0.82026 0.10714 0.66914 0.0
C211 C 0.88435 0.17213 0.74047 0.0
C212 C 0.87418 0.88615 0.24046 0.0
C213 C 0.90875 0.85234 0.22461 0.0
H214 H 0.81904 0.94117 0.22777 0.0
C215 C 0.91227 0.84669 0.18247 0.0
H216 H 0.87069 0.89128 0.27278 0.0
C217 C 0.88372 0.87619 0.15668 0.0
C218 C 0.84994 0.91079 0.17253 0.0
H219 H 0.93887 0.82118 0.16937 0.0
H220 H 0.88868 0.87255 0.12435 0.0
C221 C 0.84451 0.91452 0.21467 0.0
C222 C 0.13357 0.84639 0.71531 0.0
C223 C 0.13698 0.85157 0.67315 0.0
H224 H 0.15744 0.87284 0.77331 0.0
C225 C 0.17152 0.88519 0.65715 0.0
H226 H 0.10699 0.82104 0.72852 0.0
C227 C 0.20134 0.91381 0.6828 0.0
C228 C 0.19609 0.91051 0.72497 0.0
H229 H 0.17489 0.88996 0.6248 0.0
H230 H 0.22682 0.94027 0.66959 0.0
C231 C 0.16228 0.87613 0.74096 0.0
C232 C 0.86894 0.85761 0.74068 0.0
C233 C 0.83585 0.89356 0.72601 0.0
H234 H 0.92459 0.80387 0.72602 0.0
C235 C 0.82801 0.89736 0.6843 0.0
H236 H 0.87527 0.85372 0.7728 0.0
C237 C 0.8568 0.86945 0.65758 0.0
C238 C 0.89301 0.83666 0.67225 0.0
H239 H 0.8027 0.92474 0.67223 0.0
H240 H 0.85277 0.87566 0.62545 0.0
C241 C 0.89699 0.82894 0.71396 0.0
C242 C 0.21759 0.8997 0.21389 0.0
C243 C 0.21037 0.89479 0.17215 0.0
H244 H 0.1922 0.87925 0.27275 0.0
C245 C 0.17765 0.85829 0.15759 0.0
H246 H 0.24256 0.92757 0.22586 0.0
C247 C 0.14945 0.83007 0.18438 0.0
C248 C 0.15284 0.83879 0.22604 0.0
H249 H 0.17179 0.85358 0.12546 0.0
H250 H 0.1222 0.80447 0.17236 0.0
C251 C 0.18861 0.87224 0.24066 0.0
C252 C 0.14993 0.21892 0.71331 0.0
C253 C 0.15382 0.21046 0.67163 0.0
H254 H 0.17161 0.1951 0.77225 0.0
C255 C 0.1898 0.17718 0.65708 0.0
H256 H 0.12252 0.24439 0.72528 0.0
C257 C 0.21849 0.14961 0.6839 0.0
C258 C 0.21076 0.15423 0.72561 0.0
H259 H 0.19377 0.17037 0.62498 0.0
H260 H 0.24364 0.12186 0.67194 0.0
C261 C 0.17786 0.19059 0.74014 0.0
C262 C 0.85711 0.179 0.23995 0.0
C263 C 0.89341 0.21181 0.22534 0.0
H264 H 0.80303 0.12372 0.2252 0.0
C265 C 0.89768 0.21948 0.18364 0.0
H266 H 0.85287 0.17281 0.27207 0.0
C267 C 0.86978 0.1908 0.15686 0.0
C268 C 0.83653 0.1549 0.17148 0.0
H269 H 0.92537 0.24456 0.17163 0.0
H270 H 0.8763 0.19469 0.12475 0.0
C271 C 0.82845 0.1511 0.21317 0.0
loop_
_geom_bond_atom_site_label_1
_geom_bond_atom_site_label_2
_geom_bond_distance
_geom_bond_site_symmetry_2
_ccdc_geom_bond_type
C0 O1 1.306 . S
C0 O3 1.160 . S
O1 C0 1.306 . S
O1 Cd2 2.228 1_565 S
Cd2 O1 2.228 1_545 S
Cd2 O6 2.273 . S
Cd2 O10 2.277 . S
O3 C0 1.160 . S
O3 Cd4 2.203 1_565 S
Cd4 O3 2.203 1_545 S
Cd4 O6 2.411 . S
Cd4 O7 2.333 . S
Cd4 O8 2.352 1_545 S
Cd4 O12 2.277 . S
Cd4 O13 2.356 . S
C5 O10 1.209 . S
C5 O12 1.226 . S
O6 Cd2 2.273 . S
O6 Cd4 2.411 . S
O6 C9 1.320 . S
O7 Cd4 2.333 . S
O7 C9 1.214 . S
O8 Cd4 2.352 1_565 S
O8 C11 1.258 1_565 S
C9 O6 1.320 . S
C9 O7 1.214 . S
O10 Cd2 2.277 . S
O10 C5 1.209 . S
C11 O8 1.258 1_545 S
C11 O13 1.282 . S
O12 Cd4 2.277 . S
O12 C5 1.226 . S
O13 Cd4 2.356 . S
O13 C11 1.282 . S
C14 O15 1.306 . S
C14 O17 1.160 . S
O15 C14 1.306 . S
O15 Cd16 2.228 . S
Cd16 O15 2.228 . S
Cd16 O20 2.273 . S
Cd16 O24 2.277 . S
O17 C14 1.160 . S
O17 Cd18 2.203 . S
Cd18 O17 2.203 . S
Cd18 O20 2.411 . S
Cd18 O21 2.333 . S
Cd18 O22 2.352 . S
Cd18 O26 2.277 1_455 S
Cd18 O27 2.356 . S
C19 O24 1.209 1_655 S
C19 O26 1.226 . S
O20 Cd16 2.273 . S
O20 Cd18 2.411 . S
O20 C23 1.320 . S
O21 Cd18 2.333 . S
O21 C23 1.214 . S
O22 Cd18 2.352 . S
O22 C25 1.258 . S
C23 O20 1.320 . S
C23 O21 1.214 . S
O24 Cd16 2.277 . S
O24 C19 1.209 1_455 S
C25 O22 1.258 . S
C25 O27 1.282 . S
O26 Cd18 2.277 1_655 S
O26 C19 1.226 . S
O27 Cd18 2.356 . S
O27 C25 1.282 . S
C28 O29 1.306 . S
C28 O31 1.160 . S
O29 C28 1.306 . S
O29 Cd30 2.228 . S
Cd30 O29 2.228 . S
Cd30 O34 2.273 . S
Cd30 O38 2.277 . S
O31 C28 1.160 . S
O31 Cd32 2.203 . S
Cd32 O31 2.203 . S
Cd32 O34 2.411 . S
Cd32 O35 2.333 . S
Cd32 O36 2.352 . S
Cd32 O40 2.277 1_545 S
Cd32 O41 2.356 . S
C33 O38 1.209 1_565 S
C33 O40 1.226 . S
O34 Cd30 2.273 . S
O34 Cd32 2.411 . S
O34 C37 1.320 . S
O35 Cd32 2.333 . S
O35 C37 1.214 . S
O36 Cd32 2.352 . S
O36 C39 1.258 . S
C37 O34 1.320 . S
C37 O35 1.214 . S
O38 Cd30 2.277 . S
O38 C33 1.209 1_545 S
C39 O36 1.258 . S
C39 O41 1.282 . S
O40 Cd32 2.277 1_565 S
O40 C33 1.226 . S
O41 Cd32 2.356 . S
O41 C39 1.282 . S
C42 O43 1.306 . S
C42 O45 1.160 . S
O43 C42 1.306 . S
O43 Cd44 2.228 1_655 S
Cd44 O43 2.228 1_455 S
Cd44 O48 2.273 . S
Cd44 O52 2.277 . S
O45 C42 1.160 . S
O45 Cd46 2.203 1_655 S
Cd46 O45 2.203 1_455 S
Cd46 O48 2.411 . S
Cd46 O49 2.333 . S
Cd46 O50 2.352 1_455 S
Cd46 O54 2.277 . S
Cd46 O55 2.356 . S
C47 O52 1.209 . S
C47 O54 1.226 . S
O48 Cd44 2.273 . S
O48 Cd46 2.411 . S
O48 C51 1.320 . S
O49 Cd46 2.333 . S
O49 C51 1.214 . S
O50 Cd46 2.352 1_655 S
O50 C53 1.258 1_655 S
C51 O48 1.320 . S
C51 O49 1.214 . S
O52 Cd44 2.277 . S
O52 C47 1.209 . S
C53 O50 1.258 1_455 S
C53 O55 1.282 . S
O54 Cd46 2.277 . S
O54 C47 1.226 . S
O55 Cd46 2.356 . S
O55 C53 1.282 . S
C56 O57 1.306 . S
C56 O59 1.160 . S
O57 C56 1.306 . S
O57 Cd58 2.228 . S
Cd58 O57 2.228 . S
Cd58 O62 2.273 . S
Cd58 O66 2.277 . S
O59 C56 1.160 . S
O59 Cd60 2.203 . S
Cd60 O59 2.203 . S
Cd60 O62 2.411 . S
Cd60 O63 2.333 . S
Cd60 O64 2.352 . S
Cd60 O68 2.277 1_545 S
Cd60 O69 2.356 . S
C61 O66 1.209 1_565 S
C61 O68 1.226 . S
O62 Cd58 2.273 . S
O62 Cd60 2.411 . S
O62 C65 1.320 . S
O63 Cd60 2.333 . S
O63 C65 1.214 . S
O64 Cd60 2.352 . S
O64 C67 1.258 . S
C65 O62 1.320 . S
C65 O63 1.214 . S
O66 Cd58 2.277 . S
O66 C61 1.209 1_545 S
C67 O64 1.258 . S
C67 O69 1.282 . S
O68 Cd60 2.277 1_565 S
O68 C61 1.226 . S
O69 Cd60 2.356 . S
O69 C67 1.282 . S
C70 O71 1.306 . S
C70 O73 1.160 . S
O71 C70 1.306 . S
O71 Cd72 2.228 1_655 S
Cd72 O71 2.228 1_455 S
Cd72 O76 2.273 . S
Cd72 O80 2.277 . S
O73 C70 1.160 . S
O73 Cd74 2.203 1_655 S
Cd74 O73 2.203 1_455 S
Cd74 O76 2.411 . S
Cd74 O77 2.333 . S
Cd74 O78 2.352 1_455 S
Cd74 O82 2.277 . S
Cd74 O83 2.356 . S
C75 O80 1.209 . S
C75 O82 1.226 . S
O76 Cd72 2.273 . S
O76 Cd74 2.411 . S
O76 C79 1.320 . S
O77 Cd74 2.333 . S
O77 C79 1.214 . S
O78 Cd74 2.352 1_655 S
O78 C81 1.258 1_655 S
C79 O76 1.320 . S
C79 O77 1.214 . S
O80 Cd72 2.277 . S
O80 C75 1.209 . S
C81 O78 1.258 1_455 S
C81 O83 1.282 . S
O82 Cd74 2.277 . S
O82 C75 1.226 . S
O83 Cd74 2.356 . S
O83 C81 1.282 . S
C84 O85 1.306 . S
C84 O87 1.160 . S
O85 C84 1.306 . S
O85 Cd86 2.228 1_565 S
Cd86 O85 2.228 1_545 S
Cd86 O90 2.273 . S
Cd86 O94 2.277 . S
O87 C84 1.160 . S
O87 Cd88 2.203 1_565 S
Cd88 O87 2.203 1_545 S
Cd88 O90 2.411 . S
Cd88 O91 2.333 . S
Cd88 O92 2.352 1_545 S
Cd88 O96 2.277 . S
Cd88 O97 2.356 . S
C89 O94 1.209 . S
C89 O96 1.226 . S
O90 Cd86 2.273 . S
O90 Cd88 2.411 . S
O90 C93 1.320 . S
O91 Cd88 2.333 . S
O91 C93 1.214 . S
O92 Cd88 2.352 1_565 S
O92 C95 1.258 1_565 S
C93 O90 1.320 . S
C93 O91 1.214 . S
O94 Cd86 2.277 . S
O94 C89 1.209 . S
C95 O92 1.258 1_545 S
C95 O97 1.282 . S
O96 Cd88 2.277 . S
O96 C89 1.226 . S
O97 Cd88 2.356 . S
O97 C95 1.282 . S
C98 O99 1.306 . S
C98 O101 1.160 . S
O99 C98 1.306 . S
O99 Cd100 2.228 . S
Cd100 O99 2.228 . S
Cd100 O104 2.273 . S
Cd100 O108 2.277 . S
O101 C98 1.160 . S
O101 Cd102 2.203 . S
Cd102 O101 2.203 . S
Cd102 O104 2.411 . S
Cd102 O105 2.333 . S
Cd102 O106 2.352 . S
Cd102 O110 2.277 1_455 S
Cd102 O111 2.356 . S
C103 O108 1.209 1_655 S
C103 O110 1.226 . S
O104 Cd100 2.273 . S
O104 Cd102 2.411 . S
O104 C107 1.320 . S
O105 Cd102 2.333 . S
O105 C107 1.214 . S
O106 Cd102 2.352 . S
O106 C109 1.258 . S
C107 O104 1.320 . S
C107 O105 1.214 . S
O108 Cd100 2.277 . S
O108 C103 1.209 1_455 S
C109 O106 1.258 . S
C109 O111 1.282 . S
O110 Cd102 2.277 1_655 S
O110 C103 1.226 . S
O111 Cd102 2.356 . S
O111 C109 1.282 . S
C112 C113 1.387 . S
C112 H116 0.950 . S
C112 C121 1.390 1_554 S
C113 C112 1.387 . S
C113 C115 1.387 . S
H114 C121 0.950 . S
C115 C113 1.387 . S
C115 C117 1.390 1_554 S
C115 H119 0.950 . S
H116 C112 0.950 . S
C117 C115 1.390 1_556 S
C117 C118 1.387 . S
C117 H120 0.950 . S
C118 C117 1.387 . S
C118 C121 1.387 . S
H119 C115 0.950 . S
H120 C117 0.950 . S
C121 C112 1.390 1_556 S
C121 H114 0.950 . S
C121 C118 1.387 . S
C122 C123 1.387 . S
C122 H126 0.950 . S
C122 C131 1.390 . S
C123 C122 1.387 . S
C123 C125 1.387 . S
H124 C131 0.950 . S
C125 C123 1.387 . S
C125 C127 1.390 . S
C125 H129 0.950 . S
H126 C122 0.950 . S
C127 C125 1.390 . S
C127 C128 1.387 . S
C127 H130 0.950 . S
C128 C127 1.387 . S
C128 C131 1.387 . S
H129 C125 0.950 . S
H130 C127 0.950 . S
C131 C122 1.390 . S
C131 H124 0.950 . S
C131 C128 1.387 . S
C132 C133 1.387 . S
C132 H136 0.950 . S
C132 C141 1.390 1_556 S
C133 C132 1.387 . S
C133 C135 1.387 . S
H134 C141 0.950 . S
C135 C133 1.387 . S
C135 C137 1.390 1_556 S
C135 H139 0.950 . S
H136 C132 0.950 . S
C137 C135 1.390 1_554 S
C137 C138 1.387 . S
C137 H140 0.950 . S
C138 C137 1.387 . S
C138 C141 1.387 . S
H139 C135 0.950 . S
H140 C137 0.950 . S
C141 C132 1.390 1_554 S
C141 H134 0.950 . S
C141 C138 1.387 . S
C142 C143 1.387 . S
C142 H146 0.950 . S
C142 C151 1.390 . S
C143 C142 1.387 . S
C143 C145 1.387 . S
H144 C151 0.950 . S
C145 C143 1.387 . S
C145 C147 1.390 . S
C145 H149 0.950 . S
H146 C142 0.950 . S
C147 C145 1.390 . S
C147 C148 1.387 . S
C147 H150 0.950 . S
C148 C147 1.387 . S
C148 C151 1.387 . S
H149 C145 0.950 . S
H150 C147 0.950 . S
C151 C142 1.390 . S
C151 H144 0.950 . S
C151 C148 1.387 . S
C152 C153 1.387 . S
C152 H156 0.950 . S
C152 C161 1.390 . S
C153 C152 1.387 . S
C153 C155 1.387 . S
H154 C161 0.950 . S
C155 C153 1.387 . S
C155 C157 1.390 . S
C155 H159 0.950 . S
H156 C152 0.950 . S
C157 C155 1.390 . S
C157 C158 1.387 . S
C157 H160 0.950 . S
C158 C157 1.387 . S
C158 C161 1.387 . S
H159 C155 0.950 . S
H160 C157 0.950 . S
C161 C152 1.390 . S
C161 H154 0.950 . S
C161 C158 1.387 . S
C162 C163 1.387 . S
C162 H166 0.950 . S
C162 C171 1.390 . S
C163 C162 1.387 . S
C163 C165 1.387 . S
H164 C171 0.950 . S
C165 C163 1.387 . S
C165 C167 1.390 . S
C165 H169 0.950 . S
H166 C162 0.950 . S
C167 C165 1.390 . S
C167 C168 1.387 . S
C167 H170 0.950 . S
C168 C167 1.387 . S
C168 C171 1.387 . S
H169 C165 0.950 . S
H170 C167 0.950 . S
C171 C162 1.390 . S
C171 H164 0.950 . S
C171 C168 1.387 . S
C172 C173 1.387 . S
C172 H176 0.950 . S
C172 C181 1.390 . S
C173 C172 1.387 . S
C173 C175 1.387 . S
H174 C181 0.950 . S
C175 C173 1.387 . S
C175 C177 1.390 . S
C175 H179 0.950 . S
H176 C172 0.950 . S
C177 C175 1.390 . S
C177 C178 1.387 . S
C177 H180 0.950 . S
C178 C177 1.387 . S
C178 C181 1.387 . S
H179 C175 0.950 . S
H180 C177 0.950 . S
C181 C172 1.390 . S
C181 H174 0.950 . S
C181 C178 1.387 . S
C182 C183 1.387 . S
C182 H186 0.950 . S
C182 C191 1.390 . S
C183 C182 1.387 . S
C183 C185 1.387 . S
H184 C191 0.950 . S
C185 C183 1.387 . S
C185 C187 1.390 . S
C185 H189 0.950 . S
H186 C182 0.950 . S
C187 C185 1.390 . S
C187 C188 1.387 . S
C187 H190 0.950 . S
C188 C187 1.387 . S
C188 C191 1.387 . S
H189 C185 0.950 . S
H190 C187 0.950 . S
C191 C182 1.390 . S
C191 H184 0.950 . S
C191 C188 1.387 . S
C192 C193 1.387 . S
C192 H196 0.950 . S
C192 C201 1.390 . S
C193 C192 1.387 . S
C193 C195 1.387 . S
H194 C201 0.950 . S
C195 C193 1.387 . S
C195 C197 1.390 . S
C195 H199 0.950 . S
H196 C192 0.950 . S
C197 C195 1.390 . S
C197 C198 1.387 . S
C197 H200 0.950 . S
C198 C197 1.387 . S
C198 C201 1.387 . S
H199 C195 0.950 . S
H200 C197 0.950 . S
C201 C192 1.390 . S
C201 H194 0.950 . S
C201 C198 1.387 . S
C202 C203 1.387 . S
C202 H206 0.950 . S
C202 C211 1.390 . S
C203 C202 1.387 . S
C203 C205 1.387 . S
H204 C211 0.950 . S
C205 C203 1.387 . S
C205 C207 1.390 . S
C205 H209 0.950 . S
H206 C202 0.950 . S
C207 C205 1.390 . S
C207 C208 1.387 . S
C207 H210 0.950 . S
C208 C207 1.387 . S
C208 C211 1.387 . S
H209 C205 0.950 . S
H210 C207 0.950 . S
C211 C202 1.390 . S
C211 H204 0.950 . S
C211 C208 1.387 . S
C212 C213 1.387 . S
C212 H216 0.950 . S
C212 C221 1.390 . S
C213 C212 1.387 . S
C213 C215 1.387 . S
H214 C221 0.950 . S
C215 C213 1.387 . S
C215 C217 1.390 . S
C215 H219 0.950 . S
H216 C212 0.950 . S
C217 C215 1.390 . S
C217 C218 1.387 . S
C217 H220 0.950 . S
C218 C217 1.387 . S
C218 C221 1.387 . S
H219 C215 0.950 . S
H220 C217 0.950 . S
C221 C212 1.390 . S
C221 H214 0.950 . S
C221 C218 1.387 . S
C222 C223 1.387 . S
C222 H226 0.950 . S
C222 C231 1.390 . S
C223 C222 1.387 . S
C223 C225 1.387 . S
H224 C231 0.950 . S
C225 C223 1.387 . S
C225 C227 1.390 . S
C225 H229 0.950 . S
H226 C222 0.950 . S
C227 C225 1.390 . S
C227 C228 1.387 . S
C227 H230 0.950 . S
C228 C227 1.387 . S
C228 C231 1.387 . S
H229 C225 0.950 . S
H230 C227 0.950 . S
C231 C222 1.390 . S
C231 H224 0.950 . S
C231 C228 1.387 . S
C232 C233 1.387 . S
C232 H236 0.950 . S
C232 C241 1.390 . S
C233 C232 1.387 . S
C233 C235 1.387 . S
H234 C241 0.950 . S
C235 C233 1.387 . S
C235 C237 1.390 . S
C235 H239 0.950 . S
H236 C232 0.950 . S
C237 C235 1.390 . S
C237 C238 1.387 . S
C237 H240 0.950 . S
C238 C237 1.387 . S
C238 C241 1.387 . S
H239 C235 0.950 . S
H240 C237 0.950 . S
C241 C232 1.390 . S
C241 H234 0.950 . S
C241 C238 1.387 . S
C242 C243 1.387 . S
C242 H246 0.950 . S
C242 C251 1.390 . S
C243 C242 1.387 . S
C243 C245 1.387 . S
H244 C251 0.950 . S
C245 C243 1.387 . S
C245 C247 1.390 . S
C245 H249 0.950 . S
H246 C242 0.950 . S
C247 C245 1.390 . S
C247 C248 1.387 . S
C247 H250 0.950 . S
C248 C247 1.387 . S
C248 C251 1.387 . S
H249 C245 0.950 . S
H250 C247 0.950 . S
C251 C242 1.390 . S
C251 H244 0.950 . S
C251 C248 1.387 . S
C252 C253 1.387 . S
C252 H256 0.950 . S
C252 C261 1.390 . S
C253 C252 1.387 . S
C253 C255 1.387 . S
H254 C261 0.950 . S
C255 C253 1.387 . S
C255 C257 1.390 . S
C255 H259 0.950 . S
H256 C252 0.950 . S
C257 C255 1.390 . S
C257 C258 1.387 . S
C257 H260 0.950 . S
C258 C257 1.387 . S
C258 C261 1.387 . S
H259 C255 0.950 . S
H260 C257 0.950 . S
C261 C252 1.390 . S
C261 H254 0.950 . S
C261 C258 1.387 . S
C262 C263 1.387 . S
C262 H266 0.950 . S
C262 C271 1.390 . S
C263 C262 1.387 . S
C263 C265 1.387 . S
H264 C271 0.950 . S
C265 C263 1.387 . S
C265 C267 1.390 . S
C265 H269 0.950 . S
H266 C262 0.950 . S
C267 C265 1.390 . S
C267 C268 1.387 . S
C267 H270 0.950 . S
C268 C267 1.387 . S
C268 C271 1.387 . S
H269 C265 0.950 . S
H270 C267 0.950 . S
C271 C262 1.390 . S
C271 H264 0.950 . S
C271 C268 1.387 . S
C113 C9 1.568 . S
C118 C65 1.568 . S
C123 C23 1.568 . S
C128 C79 1.568 . S
C133 C93 1.568 . S
C138 C37 1.568 . S
C143 C107 1.568 . S
C148 C51 1.568 . S
C153 C11 1.384 . S
C158 C39 1.384 . S
C163 C25 1.384 . S
C168 C53 1.384 . S
C173 C95 1.384 . S
C178 C67 1.384 . S
C183 C81 1.387 . S
C188 C109 1.387 . S
C193 C75 1.526 . S
C198 C5 1.525 . S
C203 C19 1.525 . S
C208 C89 1.526 . S
C213 C103 1.526 . S
C218 C33 1.526 . S
C223 C47 1.526 . S
C228 C61 1.526 . S
C233 C84 1.255 . S
C238 C42 1.258 . S
C243 C0 1.258 . S
C248 C98 1.255 . S
C253 C14 1.257 . S
C258 C56 1.255 . S
C263 C70 1.255 . S
C268 C28 1.258 . S
