# Generated by pormake.
# Topology dft, (4)-cn, num edge types: 1
# Building blocks:
#     Node 0, Type 0, BuildingBlock: QUQFOY_clean_sbu_1, # of connection points: 4
#     Node 1, Type 0, BuildingBlock: QUQFOY_clean_sbu_1, # of connection points: 4
#     Node 2, Type 0, BuildingBlock: QUQFOY_clean_sbu_1, # of connection points: 4
#     Node 3, Type 0, BuildingBlock: QUQFOY_clean_sbu_1, # of connection points: 4
#     Node 4, Type 0, BuildingBlock: QUQFOY_clean_sbu_1, # of connection points: 4
#     Node 5, Type 0, BuildingBlock: QUQFOY_clean_sbu_1, # of connection points: 4
#     Node 6, Type 0, BuildingBlock: QUQFOY_clean_sbu_1, # of connection points: 4
#     Node 7, Type 0, BuildingBlock: QUQFOY_clean_sbu_1, # of connection points: 4
#     Edge 8, Type (0, 0), None
#     Edge 9, Type (0, 0), None
#     Edge 10, Type (0, 0), None
#     Edge 11, Type (0, 0), None
#     Edge 12, Type (0, 0), None
#     Edge 13, Type (0, 0), None
#     Edge 14, Type (0, 0), None
#     Edge 15, Type (0, 0), None
#     Edge 16, Type (0, 0), None
#     Edge 17, Type (0, 0), None
#     Edge 18, Type (0, 0), None
#     Edge 19, Type (0, 0), None
#     Edge 20, Type (0, 0), None
#     Edge 21, Type (0, 0), None
#     Edge 22, Type (0, 0), None
#     Edge 23, Type (0, 0), None
# Relax obj value: 0.246
# Max RMSD: 0.237
# Mean RMSD: 0.237
data_MOF--net-dft--node1-QUQFOY_clean_sbu_1--edge1-none
_symmetry_space_group_name_H-M    P1
_symmetry_Int_Tables_number       1
_symmetry_cell_setting            triclinic
loop_
_symmetry_equiv_pos_as_xyz
'x, y, z'
_cell_length_a     16.806349
_cell_length_b     16.806351
_cell_length_c     18.930437
_cell_angle_alpha  90.000476
_cell_angle_beta   89.999524
_cell_angle_gamma 89.998758
loop_
_atom_site_label
_atom_site_type_symbol
_atom_site_fract_x
_atom_site_fract_y
_atom_site_fract_z
_atom_type_partial_charge
O0 O 0.40726 0.15958 0.03405 0.0
Cd1 Cd 0.43087 0.17182 0.14092 0.0
Cd2 Cd 0.32034 0.06146 0.1527 0.0
O3 O 0.36791 0.03723 0.05451 0.0
O4 O 0.54772 0.17901 0.15786 0.0
O5 O 0.4757 0.0711 0.18067 0.0
C6 C 0.54452 0.10493 0.1761 0.0
C7 C 0.26028 0.95282 0.20362 0.0
C8 C 0.39144 0.09 0.01179 0.0
C9 C 0.28668 0.23085 0.20673 0.0
O10 O 0.26014 0.16472 0.18395 0.0
O11 O 0.36015 0.24712 0.20069 0.0
O12 O 0.23106 0.9859 0.1483 0.0
O13 O 0.32593 0.97982 0.22954 0.0
O14 O 1.00224 0.40726 0.53406 0.0
Cd15 Cd 0.99001 0.43089 0.64093 0.0
Cd16 Cd 0.10036 0.32035 0.6527 0.0
O17 O 0.12459 0.36791 0.55452 0.0
O18 O 0.98281 0.54773 0.65787 0.0
O19 O 0.09072 0.47571 0.68068 0.0
C20 C 0.0569 0.54453 0.67611 0.0
C21 C 0.209 0.26028 0.70363 0.0
C22 C 0.07183 0.39145 0.5118 0.0
C23 C 0.93097 0.28669 0.70674 0.0
O24 O 0.9971 0.26015 0.68396 0.0
O25 O 0.9147 0.36017 0.70069 0.0
O26 O 0.17592 0.23106 0.64831 0.0
O27 O 0.18201 0.32593 0.72955 0.0
O28 O 0.75457 1.00225 0.03405 0.0
Cd29 Cd 0.73095 0.99001 0.14093 0.0
Cd30 Cd 0.84149 0.10036 0.1527 0.0
O31 O 0.79392 0.1246 0.05452 0.0
O32 O 0.6141 0.98281 0.15786 0.0
O33 O 0.68613 0.09072 0.18068 0.0
C34 C 0.61731 0.05689 0.1761 0.0
C35 C 0.90155 0.209 0.20363 0.0
C36 C 0.77038 0.07183 0.0118 0.0
C37 C 0.87514 0.93097 0.20673 0.0
O38 O 0.90168 0.9971 0.18395 0.0
O39 O 0.80167 0.91471 0.20069 0.0
O40 O 0.93076 0.17593 0.14831 0.0
O41 O 0.8359 0.18201 0.22955 0.0
O42 O 0.15959 0.75457 0.53405 0.0
Cd43 Cd 0.17183 0.73095 0.64092 0.0
Cd44 Cd 0.06147 0.8415 0.6527 0.0
O45 O 0.03724 0.79393 0.55452 0.0
O46 O 0.17902 0.6141 0.65786 0.0
O47 O 0.07111 0.68614 0.68068 0.0
C48 C 0.10494 0.61732 0.6761 0.0
C49 C 0.95284 0.90156 0.70363 0.0
C50 C 0.09001 0.77039 0.5118 0.0
C51 C 0.23087 0.87515 0.70672 0.0
O52 O 0.16474 0.90169 0.68394 0.0
O53 O 0.24713 0.80167 0.70068 0.0
O54 O 0.98591 0.93078 0.6483 0.0
O55 O 0.97983 0.83591 0.72955 0.0
O56 O 0.40726 1.00224 0.91399 0.0
Cd57 Cd 0.43089 0.99 0.80712 0.0
Cd58 Cd 0.32034 0.10037 0.79534 0.0
O59 O 0.36791 0.12459 0.89353 0.0
O60 O 0.54773 0.98281 0.79018 0.0
O61 O 0.47571 0.09072 0.76737 0.0
C62 C 0.54453 0.0569 0.77194 0.0
C63 C 0.26028 0.20899 0.74442 0.0
C64 C 0.39145 0.07182 0.93624 0.0
C65 C 0.2867 0.93097 0.74131 0.0
O66 O 0.26015 0.9971 0.76409 0.0
O67 O 0.36017 0.9147 0.74736 0.0
O68 O 0.23106 0.17592 0.79975 0.0
O69 O 0.32594 0.18201 0.7185 0.0
O70 O 0.15958 0.40726 0.414 0.0
Cd71 Cd 0.17182 0.43088 0.30713 0.0
Cd72 Cd 0.06146 0.32033 0.29535 0.0
O73 O 0.03723 0.36791 0.39354 0.0
O74 O 0.17901 0.54772 0.29019 0.0
O75 O 0.0711 0.4757 0.26738 0.0
C76 C 0.10493 0.54452 0.27195 0.0
C77 C 0.95283 0.26028 0.24443 0.0
C78 C 0.09 0.39144 0.43625 0.0
C79 C 0.23085 0.28668 0.24132 0.0
O80 O 0.16472 0.26014 0.2641 0.0
O81 O 0.24712 0.36015 0.24736 0.0
O82 O 0.9859 0.23105 0.29975 0.0
O83 O 0.97982 0.32593 0.2185 0.0
O84 O 0.75457 0.15959 0.914 0.0
Cd85 Cd 0.73095 0.17183 0.80713 0.0
Cd86 Cd 0.8415 0.06147 0.79535 0.0
O87 O 0.79393 0.03724 0.89353 0.0
O88 O 0.6141 0.17902 0.79019 0.0
O89 O 0.68614 0.07111 0.76737 0.0
C90 C 0.61732 0.10494 0.77195 0.0
C91 C 0.90156 0.95285 0.74443 0.0
C92 C 0.77039 0.09001 0.93625 0.0
C93 C 0.87514 0.23087 0.74133 0.0
O94 O 0.90169 0.16473 0.7641 0.0
O95 O 0.80167 0.24713 0.74737 0.0
O96 O 0.93078 0.98591 0.79975 0.0
O97 O 0.8359 0.97983 0.7185 0.0
O98 O 1.00225 0.75457 0.414 0.0
Cd99 Cd 0.99001 0.73095 0.30712 0.0
Cd100 Cd 0.10037 0.84149 0.29535 0.0
O101 O 0.1246 0.79392 0.39353 0.0
O102 O 0.98281 0.6141 0.29019 0.0
O103 O 0.09072 0.68613 0.26737 0.0
C104 C 0.05689 0.61731 0.27195 0.0
C105 C 0.20899 0.90154 0.24442 0.0
C106 C 0.07183 0.77038 0.43625 0.0
C107 C 0.93097 0.87514 0.24132 0.0
O108 O 0.99711 0.90168 0.26409 0.0
O109 O 0.91471 0.80167 0.24736 0.0
O110 O 0.17593 0.93077 0.29975 0.0
O111 O 0.18201 0.83589 0.21849 0.0
loop_
_geom_bond_atom_site_label_1
_geom_bond_atom_site_label_2
_geom_bond_distance
_geom_bond_site_symmetry_2
_ccdc_geom_bond_type
O0 Cd1 2.223 . S
O0 C8 1.315 . S
Cd1 O0 2.223 . S
Cd1 O4 2.297 . S
Cd1 O5 2.439 . S
Cd1 O11 2.240 . S
Cd2 O3 2.240 . S
Cd2 O10 2.223 . S
Cd2 O12 2.297 1_545 S
Cd2 O13 2.439 1_545 S
O3 Cd2 2.240 . S
O3 C8 1.279 . S
O4 Cd1 2.297 . S
O4 C6 1.247 . S
O5 Cd1 2.439 . S
O5 C6 1.208 . S
C6 O4 1.247 . S
C6 O5 1.208 . S
C7 O12 1.247 . S
C7 O13 1.208 . S
C8 O0 1.315 . S
C8 O3 1.279 . S
C9 O10 1.315 . S
C9 O11 1.279 . S
O10 Cd2 2.223 . S
O10 C9 1.315 . S
O11 Cd1 2.240 . S
O11 C9 1.279 . S
O12 Cd2 2.297 1_565 S
O12 C7 1.247 . S
O13 Cd2 2.439 1_565 S
O13 C7 1.208 . S
O14 Cd15 2.223 . S
O14 C22 1.315 . S
Cd15 O14 2.223 . S
Cd15 O18 2.297 . S
Cd15 O19 2.439 1_655 S
Cd15 O25 2.240 . S
Cd16 O17 2.240 . S
Cd16 O24 2.223 1_455 S
Cd16 O26 2.297 . S
Cd16 O27 2.439 . S
O17 Cd16 2.240 . S
O17 C22 1.279 1_455 S
O18 Cd15 2.297 . S
O18 C20 1.247 1_655 S
O19 Cd15 2.439 1_455 S
O19 C20 1.208 . S
C20 O18 1.247 1_455 S
C20 O19 1.208 . S
C21 O26 1.247 . S
C21 O27 1.208 . S
C22 O14 1.315 . S
C22 O17 1.279 1_655 S
C23 O24 1.315 . S
C23 O25 1.279 . S
O24 Cd16 2.223 1_655 S
O24 C23 1.315 . S
O25 Cd15 2.240 . S
O25 C23 1.279 . S
O26 Cd16 2.297 . S
O26 C21 1.247 . S
O27 Cd16 2.439 . S
O27 C21 1.208 . S
O28 Cd29 2.223 . S
O28 C36 1.315 . S
Cd29 O28 2.223 . S
Cd29 O32 2.297 . S
Cd29 O33 2.439 1_565 S
Cd29 O39 2.240 . S
Cd30 O31 2.240 . S
Cd30 O38 2.223 1_545 S
Cd30 O40 2.297 . S
Cd30 O41 2.439 . S
O31 Cd30 2.240 . S
O31 C36 1.279 1_545 S
O32 Cd29 2.297 . S
O32 C34 1.247 1_565 S
O33 Cd29 2.439 1_545 S
O33 C34 1.208 . S
C34 O32 1.247 1_545 S
C34 O33 1.208 . S
C35 O40 1.247 . S
C35 O41 1.208 . S
C36 O28 1.315 . S
C36 O31 1.279 1_565 S
C37 O38 1.315 . S
C37 O39 1.279 . S
O38 Cd30 2.223 1_565 S
O38 C37 1.315 . S
O39 Cd29 2.240 . S
O39 C37 1.279 . S
O40 Cd30 2.297 . S
O40 C35 1.247 . S
O41 Cd30 2.439 . S
O41 C35 1.208 . S
O42 Cd43 2.223 . S
O42 C50 1.315 . S
Cd43 O42 2.223 . S
Cd43 O46 2.297 . S
Cd43 O47 2.439 . S
Cd43 O53 2.240 . S
Cd44 O45 2.240 . S
Cd44 O52 2.223 . S
Cd44 O54 2.297 1_455 S
Cd44 O55 2.439 1_455 S
O45 Cd44 2.240 . S
O45 C50 1.279 . S
O46 Cd43 2.297 . S
O46 C48 1.247 . S
O47 Cd43 2.439 . S
O47 C48 1.208 . S
C48 O46 1.247 . S
C48 O47 1.208 . S
C49 O54 1.247 . S
C49 O55 1.208 . S
C50 O42 1.315 . S
C50 O45 1.279 . S
C51 O52 1.315 . S
C51 O53 1.279 . S
O52 Cd44 2.223 . S
O52 C51 1.315 . S
O53 Cd43 2.240 . S
O53 C51 1.279 . S
O54 Cd44 2.297 1_655 S
O54 C49 1.247 . S
O55 Cd44 2.439 1_655 S
O55 C49 1.208 . S
O56 Cd57 2.223 . S
O56 C64 1.315 . S
Cd57 O56 2.223 . S
Cd57 O60 2.297 . S
Cd57 O61 2.439 1_565 S
Cd57 O67 2.240 . S
Cd58 O59 2.240 . S
Cd58 O66 2.223 1_545 S
Cd58 O68 2.297 . S
Cd58 O69 2.439 . S
O59 Cd58 2.240 . S
O59 C64 1.279 1_545 S
O60 Cd57 2.297 . S
O60 C62 1.247 1_565 S
O61 Cd57 2.439 1_545 S
O61 C62 1.208 . S
C62 O60 1.247 1_545 S
C62 O61 1.208 . S
C63 O68 1.247 . S
C63 O69 1.208 . S
C64 O56 1.315 . S
C64 O59 1.279 1_565 S
C65 O66 1.315 . S
C65 O67 1.279 . S
O66 Cd58 2.223 1_565 S
O66 C65 1.315 . S
O67 Cd57 2.240 . S
O67 C65 1.279 . S
O68 Cd58 2.297 . S
O68 C63 1.247 . S
O69 Cd58 2.439 . S
O69 C63 1.208 . S
O70 Cd71 2.223 . S
O70 C78 1.315 . S
Cd71 O70 2.223 . S
Cd71 O74 2.297 . S
Cd71 O75 2.439 . S
Cd71 O81 2.240 . S
Cd72 O73 2.240 . S
Cd72 O80 2.223 . S
Cd72 O82 2.297 1_455 S
Cd72 O83 2.439 1_455 S
O73 Cd72 2.240 . S
O73 C78 1.279 . S
O74 Cd71 2.297 . S
O74 C76 1.247 . S
O75 Cd71 2.439 . S
O75 C76 1.208 . S
C76 O74 1.247 . S
C76 O75 1.208 . S
C77 O82 1.247 . S
C77 O83 1.208 . S
C78 O70 1.315 . S
C78 O73 1.279 . S
C79 O80 1.315 . S
C79 O81 1.279 . S
O80 Cd72 2.223 . S
O80 C79 1.315 . S
O81 Cd71 2.240 . S
O81 C79 1.279 . S
O82 Cd72 2.297 1_655 S
O82 C77 1.247 . S
O83 Cd72 2.439 1_655 S
O83 C77 1.208 . S
O84 Cd85 2.223 . S
O84 C92 1.315 . S
Cd85 O84 2.223 . S
Cd85 O88 2.297 . S
Cd85 O89 2.439 . S
Cd85 O95 2.240 . S
Cd86 O87 2.240 . S
Cd86 O94 2.223 . S
Cd86 O96 2.297 1_545 S
Cd86 O97 2.439 1_545 S
O87 Cd86 2.240 . S
O87 C92 1.279 . S
O88 Cd85 2.297 . S
O88 C90 1.247 . S
O89 Cd85 2.439 . S
O89 C90 1.208 . S
C90 O88 1.247 . S
C90 O89 1.208 . S
C91 O96 1.247 . S
C91 O97 1.208 . S
C92 O84 1.315 . S
C92 O87 1.279 . S
C93 O94 1.315 . S
C93 O95 1.279 . S
O94 Cd86 2.223 . S
O94 C93 1.315 . S
O95 Cd85 2.240 . S
O95 C93 1.279 . S
O96 Cd86 2.297 1_565 S
O96 C91 1.247 . S
O97 Cd86 2.439 1_565 S
O97 C91 1.208 . S
O98 Cd99 2.223 . S
O98 C106 1.315 . S
Cd99 O98 2.223 . S
Cd99 O102 2.297 . S
Cd99 O103 2.439 1_655 S
Cd99 O109 2.240 . S
Cd100 O101 2.240 . S
Cd100 O108 2.223 1_455 S
Cd100 O110 2.297 . S
Cd100 O111 2.439 . S
O101 Cd100 2.240 . S
O101 C106 1.279 1_455 S
O102 Cd99 2.297 . S
O102 C104 1.247 1_655 S
O103 Cd99 2.439 1_455 S
O103 C104 1.208 . S
C104 O102 1.247 1_455 S
C104 O103 1.208 . S
C105 O110 1.247 . S
C105 O111 1.208 . S
C106 O98 1.315 . S
C106 O101 1.279 1_655 S
C107 O108 1.315 . S
C107 O109 1.279 . S
O108 Cd100 2.223 1_655 S
O108 C107 1.315 . S
O109 Cd99 2.240 . S
O109 C107 1.279 . S
O110 Cd100 2.297 . S
O110 C105 1.247 . S
O111 Cd100 2.439 . S
O111 C105 1.208 . S
C8 C64 2.779 1_544 S
C22 C78 2.779 1_655 S
C92 C36 2.780 1_546 S
C106 C50 2.780 1_655 S
C6 C34 1.150 . S
C20 C48 1.150 . S
C90 C62 1.150 . S
C76 C104 1.150 . S
C79 C9 2.447 . S
C23 C93 2.447 . S
C107 C37 2.447 . S
C51 C65 2.447 . S
C91 C49 1.446 . S
C7 C105 1.446 . S
C21 C63 1.446 . S
C77 C35 1.446 . S
