# Generated by pormake.
# Topology dft, (4)-cn, num edge types: 1
# Building blocks:
#     Node 0, Type 0, BuildingBlock: GALJAG_clean_sbu_0, # of connection points: 4
#     Node 1, Type 0, BuildingBlock: GALJAG_clean_sbu_0, # of connection points: 4
#     Node 2, Type 0, BuildingBlock: GALJAG_clean_sbu_0, # of connection points: 4
#     Node 3, Type 0, BuildingBlock: GALJAG_clean_sbu_0, # of connection points: 4
#     Node 4, Type 0, BuildingBlock: GALJAG_clean_sbu_0, # of connection points: 4
#     Node 5, Type 0, BuildingBlock: GALJAG_clean_sbu_0, # of connection points: 4
#     Node 6, Type 0, BuildingBlock: GALJAG_clean_sbu_0, # of connection points: 4
#     Node 7, Type 0, BuildingBlock: GALJAG_clean_sbu_0, # of connection points: 4
#     Edge 8, Type (0, 0), BuildingBlock: AJUNOK_clean_linker_0, # of connection points: 2
#     Edge 9, Type (0, 0), BuildingBlock: AJUNOK_clean_linker_0, # of connection points: 2
#     Edge 10, Type (0, 0), BuildingBlock: AJUNOK_clean_linker_0, # of connection points: 2
#     Edge 11, Type (0, 0), BuildingBlock: AJUNOK_clean_linker_0, # of connection points: 2
#     Edge 12, Type (0, 0), BuildingBlock: AJUNOK_clean_linker_0, # of connection points: 2
#     Edge 13, Type (0, 0), BuildingBlock: AJUNOK_clean_linker_0, # of connection points: 2
#     Edge 14, Type (0, 0), BuildingBlock: AJUNOK_clean_linker_0, # of connection points: 2
#     Edge 15, Type (0, 0), BuildingBlock: AJUNOK_clean_linker_0, # of connection points: 2
#     Edge 16, Type (0, 0), BuildingBlock: AJUNOK_clean_linker_0, # of connection points: 2
#     Edge 17, Type (0, 0), BuildingBlock: AJUNOK_clean_linker_0, # of connection points: 2
#     Edge 18, Type (0, 0), BuildingBlock: AJUNOK_clean_linker_0, # of connection points: 2
#     Edge 19, Type (0, 0), BuildingBlock: AJUNOK_clean_linker_0, # of connection points: 2
#     Edge 20, Type (0, 0), BuildingBlock: AJUNOK_clean_linker_0, # of connection points: 2
#     Edge 21, Type (0, 0), BuildingBlock: AJUNOK_clean_linker_0, # of connection points: 2
#     Edge 22, Type (0, 0), BuildingBlock: AJUNOK_clean_linker_0, # of connection points: 2
#     Edge 23, Type (0, 0), BuildingBlock: AJUNOK_clean_linker_0, # of connection points: 2
# Relax obj value: 0.096
# Max RMSD: 0.146
# Mean RMSD: 0.146
data_MOF--net-dft--node1-GALJAG_clean_sbu_0--edge1-AJUNOK_clean_linker_0
_symmetry_space_group_name_H-M    P1
_symmetry_Int_Tables_number       1
_symmetry_cell_setting            triclinic
loop_
_symmetry_equiv_pos_as_xyz
'x, y, z'
_cell_length_a     24.909613
_cell_length_b     24.766434
_cell_length_c     33.224566
_cell_angle_alpha  90.065988
_cell_angle_beta   90.163958
_cell_angle_gamma 90.033261
loop_
_atom_site_label
_atom_site_type_symbol
_atom_site_fract_x
_atom_site_fract_y
_atom_site_fract_z
_atom_type_partial_charge
In0 In 0.32078 0.0322 0.167 0.0
O1 O 0.40149 0.07605 0.16895 0.0
O2 O 0.40109 0.99184 0.18018 0.0
C3 C 0.26032 0.10848 0.20357 0.0
C4 C 0.31171 0.03156 0.08576 0.0
C5 C 0.27764 0.94692 0.20533 0.0
O6 O 0.31078 0.10735 0.20674 0.0
O7 O 0.24082 0.07225 0.18122 0.0
O8 O 0.26828 0.95728 0.1688 0.0
O9 O 0.30975 0.9792 0.22237 0.0
C10 C 0.42855 0.03433 0.17684 0.0
O11 O 0.32115 0.98989 0.10623 0.0
O12 O 0.30694 0.07416 0.10628 0.0
In13 In 0.03597 0.31104 0.66666 0.0
O14 O 0.99165 0.39078 0.67295 0.0
O15 O 0.07654 0.39371 0.66928 0.0
C16 C 0.95577 0.25755 0.70379 0.0
C17 C 0.03537 0.30274 0.58564 0.0
C18 C 0.1167 0.26023 0.70532 0.0
O19 O 0.98007 0.29678 0.71974 0.0
O20 O 0.9714 0.24571 0.66879 0.0
O21 O 0.10072 0.24613 0.6708 0.0
O22 O 0.09322 0.30099 0.71961 0.0
C23 C 0.03324 0.41972 0.67239 0.0
O24 O 0.07824 0.30302 0.60604 0.0
O25 O 0.99303 0.30594 0.60627 0.0
In26 In 0.76932 0.04598 0.16872 0.0
O27 O 0.69114 -0.00059 0.17697 0.0
O28 O 0.68694 0.0849 0.17623 0.0
C29 C 0.83445 0.97344 0.2049 0.0
C30 C 0.7751 0.04106 0.08739 0.0
C31 C 0.8114 0.13208 0.20718 0.0
O32 O 0.78434 0.97381 0.21043 0.0
O33 O 0.85105 0.00804 0.18006 0.0
O34 O 0.82013 0.12214 0.17052 0.0
O35 O 0.77975 0.09945 0.22412 0.0
C36 C 0.66183 0.04082 0.17881 0.0
O37 O 0.7682 0.08451 0.10642 0.0
O38 O 0.77964 -0.0001 0.10944 0.0
In39 In 0.03047 0.76295 0.6656 0.0
O40 O 0.07076 0.77601 0.605 0.0
O41 O 0.98655 0.76222 0.60531 0.0
C42 C 0.95078 0.81854 0.70147 0.0
C43 C 0.03042 0.65433 0.67169 0.0
C44 C 0.11167 0.81257 0.70485 0.0
O45 O 0.96844 0.83061 0.66711 0.0
O46 O 0.97261 0.77788 0.71731 0.0
O47 O 0.08584 0.77365 0.71968 0.0
O48 O 0.09775 0.82533 0.66958 0.0
C49 C 0.02813 0.7709 0.58468 0.0
O50 O 0.07298 0.68132 0.66743 0.0
O51 O 0.98824 0.68228 0.67318 0.0
In52 In 0.30982 0.03463 0.82963 0.0
O53 O 0.30516 0.07588 0.891 0.0
O54 O 0.30541 0.99014 0.88931 0.0
C55 C 0.25787 0.11694 0.79348 0.0
C56 C 0.41778 0.03326 0.82283 0.0
C57 C 0.25513 0.95429 0.79297 0.0
O58 O 0.24672 0.10126 0.82859 0.0
O59 O 0.29589 0.09179 0.77697 0.0
O60 O 0.29414 0.97813 0.77666 0.0
O61 O 0.24416 0.97048 0.828 0.0
C62 C 0.30421 0.03229 0.91067 0.0
O63 O 0.3897 0.99095 0.82299 0.0
O64 O 0.39123 0.07643 0.8254 0.0
In65 In 0.04495 0.31393 0.32943 0.0
O66 O 0.01367 0.39396 0.30467 0.0
O67 O 0.08783 0.39509 0.33597 0.0
C68 C 0.12037 0.25086 0.29443 0.0
C69 C 0.04007 0.30512 0.41053 0.0
C70 C 0.95762 0.27272 0.29263 0.0
O71 O 0.12417 0.30163 0.29527 0.0
O72 O 0.07976 0.23225 0.31212 0.0
O73 O 0.96591 0.26807 0.32998 0.0
O74 O 0.99293 0.29942 0.27401 0.0
C75 C 0.0524 0.42181 0.31756 0.0
O76 O 0.00153 0.32184 0.38933 0.0
O77 O 0.0815 0.2927 0.39081 0.0
In78 In 0.75899 0.03933 0.83136 0.0
O79 O 0.77041 0.99582 0.89108 0.0
O80 O 0.76383 0.08136 0.89236 0.0
C81 C 0.81024 0.96049 0.79101 0.0
C82 C 0.65098 0.03567 0.82597 0.0
C83 C 0.81084 0.12002 0.79333 0.0
O84 O 0.82252 0.97328 0.82665 0.0
O85 O 0.77108 0.98609 0.77645 0.0
O86 O 0.76936 0.09776 0.77926 0.0
O87 O 0.82494 0.10337 0.82765 0.0
C88 C 0.76956 0.03822 0.91219 0.0
O89 O 0.67672 0.07946 0.828 0.0
O90 O 0.67983 0.99392 0.82669 0.0
In91 In 0.04921 0.76445 0.32917 0.0
O92 O 0.08003 0.78224 0.39226 0.0
O93 O -0.00193 0.76091 0.38649 0.0
C94 C 0.13668 0.80263 0.29114 0.0
C95 C 0.0542 0.65638 0.3175 0.0
C96 C 0.97674 0.83198 0.29525 0.0
O97 O 0.12856 0.80932 0.32825 0.0
O98 O 0.10127 0.77494 0.27327 0.0
O99 O 0.9685 0.78183 0.29805 0.0
O100 O 0.01995 0.84787 0.31107 0.0
C101 C 0.03616 0.77347 0.40978 0.0
O102 O 0.01781 0.68535 0.30234 0.0
O103 O 0.08835 0.6821 0.33797 0.0
C104 C 0.30551 0.07926 0.01955 0.0
C105 C 0.30765 0.03059 0.04127 0.0
C106 C 0.30369 0.0794 0.97735 0.0
C107 C 0.30369 0.03086 0.95526 0.0
H108 H 0.30602 0.11766 0.03518 0.0
H109 H 0.30284 0.11793 0.96198 0.0
S110 S 0.30605 0.89233 0.99788 0.0
N111 N 0.30773 0.93244 0.03756 0.0
N112 N 0.3041 0.93269 0.95842 0.0
C113 C 0.30469 0.98186 0.97665 0.0
C114 C 0.30674 0.98173 0.01959 0.0
C115 C 0.08356 0.29493 0.51988 0.0
C116 C 0.03502 0.30074 0.54103 0.0
C117 C 0.0847 0.29529 0.47768 0.0
C118 C 0.03741 0.30195 0.455 0.0
H119 H 0.12116 0.29056 0.53601 0.0
H120 H 0.12313 0.29136 0.46278 0.0
S121 S 0.89945 0.31614 0.49568 0.0
N122 N 0.93809 0.31125 0.53594 0.0
N123 N 0.94033 0.31236 0.45677 0.0
C124 C 0.98845 0.30681 0.47572 0.0
C125 C 0.98723 0.30607 0.51868 0.0
C126 C 0.7695 0.08627 0.97837 0.0
C127 C 0.77336 0.03758 0.95673 0.0
C128 C 0.77082 0.08691 0.02052 0.0
C129 C 0.77611 0.0389 0.0428 0.0
H130 H 0.76483 0.12431 0.96269 0.0
H131 H 0.76713 0.12544 0.03572 0.0
S132 S 0.78936 0.90068 0.00065 0.0
N133 N 0.78394 0.94004 0.96079 0.0
N134 N 0.78645 0.9413 0.04001 0.0
C135 C 0.78086 0.98995 0.02158 0.0
C136 C 0.77947 0.98928 0.97858 0.0
C137 C 0.07622 0.79001 0.47755 0.0
C138 C 0.0313 0.77533 0.45419 0.0
C139 C 0.07443 0.78913 0.51963 0.0
C140 C 0.0276 0.77369 0.54015 0.0
H141 H 0.11351 0.80165 0.46326 0.0
H142 H 0.11033 0.80025 0.53617 0.0
S143 S 0.89842 0.73265 0.49317 0.0
N144 N 0.93816 0.74575 0.45471 0.0
N145 N 0.9347 0.74426 0.53394 0.0
C146 C 0.98197 0.75987 0.51724 0.0
C147 C 0.98384 0.76065 0.47425 0.0
C148 C 0.51584 0.08409 0.17657 0.0
C149 C 0.48786 0.03499 0.18017 0.0
C150 C 0.57205 0.08566 0.17724 0.0
C151 C 0.60254 0.03817 0.18134 0.0
H152 H 0.49422 0.12166 0.17261 0.0
H153 H 0.5917 0.12439 0.17364 0.0
S154 S 0.54876 0.89941 0.19398 0.0
N155 N 0.49492 0.93781 0.1897 0.0
N156 N 0.60054 0.94078 0.19075 0.0
C157 C 0.5751 0.9889 0.18597 0.0
C158 C 0.5178 0.98731 0.18545 0.0
C159 C 0.07924 0.50934 0.67124 0.0
C160 C 0.0314 0.47939 0.67397 0.0
C161 C 0.07856 0.56589 0.67104 0.0
C162 C 0.03001 0.59466 0.67359 0.0
H163 H 0.11759 0.48902 0.66879 0.0
H164 H 0.11641 0.58714 0.66846 0.0
S165 S 0.89361 0.53534 0.6825 0.0
N166 N 0.93412 0.48273 0.68021 0.0
N167 N 0.93284 0.58893 0.67986 0.0
C168 C 0.9819 0.56523 0.67697 0.0
C169 C 0.98259 0.50763 0.67715 0.0
C170 C 0.56203 0.08196 0.82399 0.0
C171 C 0.59171 0.03367 0.8236 0.0
C172 C 0.50584 0.08138 0.82304 0.0
C173 C 0.47713 0.03249 0.82163 0.0
H174 H 0.58227 0.12064 0.82546 0.0
H175 H 0.48481 0.11964 0.82389 0.0
S176 S 0.53583 0.89477 0.81876 0.0
N177 N 0.58823 0.93552 0.82071 0.0
N178 N 0.48262 0.93444 0.81891 0.0
C179 C 0.50629 0.98387 0.82055 0.0
C180 C 0.56356 0.98446 0.82155 0.0
C181 C 0.09395 0.51055 0.33512 0.0
C182 C 0.05449 0.48138 0.31394 0.0
C183 C 0.0943 0.5671 0.33514 0.0
C184 C 0.05526 0.59676 0.31393 0.0
H185 H 0.12412 0.48965 0.35273 0.0
H186 H 0.12478 0.58764 0.35274 0.0
S187 S 0.94591 0.53966 0.25075 0.0
N188 N 0.97727 0.48633 0.26907 0.0
N189 N 0.978 0.59266 0.26906 0.0
C190 C 0.01672 0.56813 0.29138 0.0
C191 C 0.01631 0.51045 0.29141 0.0
C192 C 0.139 0.16609 0.25679 0.0
C193 C 0.15767 0.21575 0.27188 0.0
C194 C 0.17233 0.13236 0.2341 0.0
C195 C 0.22602 0.1464 0.22634 0.0
H196 H 0.09796 0.15344 0.26201 0.0
H197 H 0.15603 0.09454 0.22307 0.0
S198 S 0.29479 0.27164 0.25975 0.0
N199 N 0.23317 0.27753 0.27748 0.0
N200 N 0.29657 0.21318 0.23579 0.0
C201 C 0.24547 0.1957 0.24159 0.0
C202 C 0.21108 0.23066 0.26406 0.0
C203 C 0.91363 0.22734 0.76795 0.0
C204 C 0.91505 0.2257 0.72562 0.0
C205 C 0.87884 0.19388 0.7897 0.0
C206 C 0.84343 0.15851 0.76987 0.0
H207 H 0.94088 0.25331 0.78451 0.0
H208 H 0.8802 0.19523 0.82229 0.0
S209 S 0.82953 0.14082 0.65937 0.0
N210 N 0.87692 0.18695 0.66464 0.0
N211 N 0.81068 0.12493 0.70547 0.0
C212 C 0.84307 0.15786 0.72753 0.0
C213 C 0.87916 0.19122 0.70541 0.0
C214 C 0.88658 0.85499 0.26628 0.0
C215 C 0.9407 0.86879 0.27283 0.0
C216 C 0.85225 0.88913 0.24439 0.0
C217 C 0.87124 0.93754 0.22744 0.0
H218 H 0.8705 0.81779 0.27843 0.0
H219 H 0.81072 0.87725 0.24035 0.0
S220 S 0.00985 0.99171 0.23548 0.0
N221 N 0.01163 0.93429 0.26062 0.0
N222 N 0.94762 0.99762 0.21886 0.0
C223 C 0.92538 0.95153 0.23352 0.0
C224 C 0.95997 0.91739 0.2564 0.0
C225 C 0.18712 0.87884 0.70777 0.0
C226 C 0.15187 0.84384 0.72798 0.0
C227 C 0.22205 0.91283 0.72911 0.0
C228 C 0.22227 0.91379 0.77144 0.0
H229 H 0.18709 0.88071 0.67519 0.0
H230 H 0.24763 0.93998 0.71226 0.0
S231 S 0.13998 0.82785 0.83869 0.0
N232 N 0.12136 0.81014 0.7928 0.0
N233 N 0.18629 0.87489 0.83285 0.0
C234 C 0.18837 0.87792 0.79204 0.0
C235 C 0.15339 0.84267 0.77032 0.0
C236 C 0.87365 0.88287 0.78695 0.0
C237 C 0.84188 0.92159 0.76726 0.0
C238 C 0.90721 0.84822 0.76518 0.0
C239 C 0.91099 0.85185 0.72302 0.0
H240 H 0.87306 0.8797 0.81947 0.0
H241 H 0.93169 0.81963 0.78169 0.0
S242 S 0.83518 0.94576 0.65713 0.0
N243 N 0.815 0.96062 0.70312 0.0
N244 N 0.87895 0.89619 0.66227 0.0
C245 C 0.87869 0.88974 0.70289 0.0
C246 C 0.84386 0.92443 0.72501 0.0
C247 C 0.21044 0.87222 0.20659 0.0
C248 C 0.24868 0.90381 0.22715 0.0
C249 C 0.17654 0.8368 0.22731 0.0
C250 C 0.17948 0.83183 0.26941 0.0
H251 H 0.20499 0.87644 0.17438 0.0
H252 H 0.14604 0.81531 0.21038 0.0
S253 S 0.27781 0.89963 0.33673 0.0
N254 N 0.29143 0.92338 0.29149 0.0
N255 N 0.22753 0.85695 0.33048 0.0
C256 C 0.21991 0.86042 0.29003 0.0
C257 C 0.25458 0.89638 0.2689 0.0
C258 C 0.19106 0.19292 0.70823 0.0
C259 C 0.15646 0.22859 0.72842 0.0
C260 C 0.22555 0.15863 0.72961 0.0
C261 C 0.22585 0.158 0.77195 0.0
H262 H 0.19088 0.19081 0.67566 0.0
H263 H 0.25062 0.13096 0.71279 0.0
S264 S 0.14476 0.24536 0.83908 0.0
N265 N 0.12644 0.26308 0.79316 0.0
N266 N 0.19044 0.19771 0.83332 0.0
C267 C 0.19253 0.19447 0.79251 0.0
C268 C 0.15806 0.23005 0.77074 0.0
C269 C 0.91387 0.24099 0.22927 0.0
C270 C 0.91383 0.24372 0.27155 0.0
C271 C 0.87843 0.20689 0.20858 0.0
C272 C 0.84142 0.17435 0.22935 0.0
H273 H 0.94315 0.26345 0.21199 0.0
H274 H 0.88169 0.20443 0.17612 0.0
S275 S 0.81999 0.17228 0.33986 0.0
N276 N 0.86992 0.21521 0.33331 0.0
N277 N 0.80314 0.15119 0.29439 0.0
C278 C 0.83844 0.17944 0.27147 0.0
C279 C 0.87471 0.21409 0.29258 0.0
loop_
_geom_bond_atom_site_label_1
_geom_bond_atom_site_label_2
_geom_bond_distance
_geom_bond_site_symmetry_2
_ccdc_geom_bond_type
In0 O1 2.294 . S
In0 O2 2.326 1_545 S
In0 O6 2.266 . S
In0 O7 2.326 . S
In0 O8 2.266 1_545 S
In0 O9 2.326 1_545 S
In0 O11 2.294 . S
In0 O12 2.326 . S
O1 In0 2.294 . S
O1 C10 1.240 . S
O2 In0 2.326 1_565 S
O2 C10 1.252 1_565 S
C3 O6 1.252 . S
C3 O7 1.260 . S
C4 O11 1.240 . S
C4 O12 1.252 . S
C5 O8 1.252 . S
C5 O9 1.260 . S
O6 In0 2.266 . S
O6 C3 1.252 . S
O7 In0 2.326 . S
O7 C3 1.260 . S
O8 In0 2.266 1_565 S
O8 C5 1.252 . S
O9 In0 2.326 1_565 S
O9 C5 1.260 . S
C10 O1 1.240 . S
C10 O2 1.252 1_545 S
O11 In0 2.294 . S
O11 C4 1.240 . S
O12 In0 2.326 . S
O12 C4 1.252 . S
In13 O14 2.294 . S
In13 O15 2.326 . S
In13 O19 2.266 1_455 S
In13 O20 2.326 . S
In13 O21 2.266 . S
In13 O22 2.326 . S
In13 O24 2.294 . S
In13 O25 2.326 . S
O14 In13 2.294 . S
O14 C23 1.240 . S
O15 In13 2.326 . S
O15 C23 1.252 . S
C16 O19 1.252 . S
C16 O20 1.260 1_655 S
C17 O24 1.240 . S
C17 O25 1.252 . S
C18 O21 1.252 . S
C18 O22 1.260 . S
O19 In13 2.266 1_655 S
O19 C16 1.252 . S
O20 In13 2.326 . S
O20 C16 1.260 1_455 S
O21 In13 2.266 . S
O21 C18 1.252 . S
O22 In13 2.326 . S
O22 C18 1.260 . S
C23 O14 1.240 . S
C23 O15 1.252 . S
O24 In13 2.294 . S
O24 C17 1.240 . S
O25 In13 2.326 . S
O25 C17 1.252 . S
In26 O27 2.294 . S
In26 O28 2.326 . S
In26 O32 2.266 1_545 S
In26 O33 2.326 . S
In26 O34 2.266 . S
In26 O35 2.326 . S
In26 O37 2.294 . S
In26 O38 2.326 . S
O27 In26 2.294 . S
O27 C36 1.240 . S
O28 In26 2.326 . S
O28 C36 1.252 . S
C29 O32 1.252 . S
C29 O33 1.260 1_565 S
C30 O37 1.240 . S
C30 O38 1.252 . S
C31 O34 1.252 . S
C31 O35 1.260 . S
O32 In26 2.266 1_565 S
O32 C29 1.252 . S
O33 In26 2.326 . S
O33 C29 1.260 1_545 S
O34 In26 2.266 . S
O34 C31 1.252 . S
O35 In26 2.326 . S
O35 C31 1.260 . S
C36 O27 1.240 . S
C36 O28 1.252 . S
O37 In26 2.294 . S
O37 C30 1.240 . S
O38 In26 2.326 . S
O38 C30 1.252 . S
In39 O40 2.294 . S
In39 O41 2.326 . S
In39 O45 2.266 1_455 S
In39 O46 2.326 1_455 S
In39 O47 2.266 . S
In39 O48 2.326 . S
In39 O50 2.294 . S
In39 O51 2.326 1_455 S
O40 In39 2.294 . S
O40 C49 1.240 . S
O41 In39 2.326 . S
O41 C49 1.252 . S
C42 O45 1.252 . S
C42 O46 1.260 . S
C43 O50 1.240 . S
C43 O51 1.252 1_455 S
C44 O47 1.252 . S
C44 O48 1.260 . S
O45 In39 2.266 1_655 S
O45 C42 1.252 . S
O46 In39 2.326 1_655 S
O46 C42 1.260 . S
O47 In39 2.266 . S
O47 C44 1.252 . S
O48 In39 2.326 . S
O48 C44 1.260 . S
C49 O40 1.240 . S
C49 O41 1.252 . S
O50 In39 2.294 . S
O50 C43 1.240 . S
O51 In39 2.326 1_655 S
O51 C43 1.252 1_655 S
In52 O53 2.294 . S
In52 O54 2.326 . S
In52 O58 2.266 . S
In52 O59 2.326 . S
In52 O60 2.266 1_545 S
In52 O61 2.326 . S
In52 O63 2.294 . S
In52 O64 2.326 . S
O53 In52 2.294 . S
O53 C62 1.240 . S
O54 In52 2.326 . S
O54 C62 1.252 . S
C55 O58 1.252 . S
C55 O59 1.260 . S
C56 O63 1.240 . S
C56 O64 1.252 . S
C57 O60 1.252 . S
C57 O61 1.260 1_565 S
O58 In52 2.266 . S
O58 C55 1.252 . S
O59 In52 2.326 . S
O59 C55 1.260 . S
O60 In52 2.266 1_565 S
O60 C57 1.252 . S
O61 In52 2.326 . S
O61 C57 1.260 1_545 S
C62 O53 1.240 . S
C62 O54 1.252 . S
O63 In52 2.294 . S
O63 C56 1.240 . S
O64 In52 2.326 . S
O64 C56 1.252 . S
In65 O66 2.294 . S
In65 O67 2.326 1_455 S
In65 O71 2.266 . S
In65 O72 2.326 . S
In65 O73 2.266 1_455 S
In65 O74 2.326 1_455 S
In65 O76 2.294 . S
In65 O77 2.326 . S
O66 In65 2.294 . S
O66 C75 1.240 . S
O67 In65 2.326 1_655 S
O67 C75 1.252 1_655 S
C68 O71 1.252 . S
C68 O72 1.260 . S
C69 O76 1.240 . S
C69 O77 1.252 . S
C70 O73 1.252 . S
C70 O74 1.260 . S
O71 In65 2.266 . S
O71 C68 1.252 . S
O72 In65 2.326 . S
O72 C68 1.260 . S
O73 In65 2.266 1_655 S
O73 C70 1.252 . S
O74 In65 2.326 1_655 S
O74 C70 1.260 . S
C75 O66 1.240 . S
C75 O67 1.252 1_455 S
O76 In65 2.294 . S
O76 C69 1.240 . S
O77 In65 2.326 . S
O77 C69 1.252 . S
In78 O79 2.294 . S
In78 O80 2.326 . S
In78 O84 2.266 1_545 S
In78 O85 2.326 1_545 S
In78 O86 2.266 . S
In78 O87 2.326 . S
In78 O89 2.294 . S
In78 O90 2.326 1_545 S
O79 In78 2.294 . S
O79 C88 1.240 . S
O80 In78 2.326 . S
O80 C88 1.252 . S
C81 O84 1.252 . S
C81 O85 1.260 . S
C82 O89 1.240 . S
C82 O90 1.252 1_545 S
C83 O86 1.252 . S
C83 O87 1.260 . S
O84 In78 2.266 1_565 S
O84 C81 1.252 . S
O85 In78 2.326 1_565 S
O85 C81 1.260 . S
O86 In78 2.266 . S
O86 C83 1.252 . S
O87 In78 2.326 . S
O87 C83 1.260 . S
C88 O79 1.240 . S
C88 O80 1.252 . S
O89 In78 2.294 . S
O89 C82 1.240 . S
O90 In78 2.326 1_565 S
O90 C82 1.252 1_565 S
In91 O92 2.294 . S
In91 O93 2.326 . S
In91 O97 2.266 . S
In91 O98 2.326 . S
In91 O99 2.266 1_455 S
In91 O100 2.326 . S
In91 O102 2.294 . S
In91 O103 2.326 . S
O92 In91 2.294 . S
O92 C101 1.240 . S
O93 In91 2.326 . S
O93 C101 1.252 . S
C94 O97 1.252 . S
C94 O98 1.260 . S
C95 O102 1.240 . S
C95 O103 1.252 . S
C96 O99 1.252 . S
C96 O100 1.260 1_655 S
O97 In91 2.266 . S
O97 C94 1.252 . S
O98 In91 2.326 . S
O98 C94 1.260 . S
O99 In91 2.266 1_655 S
O99 C96 1.252 . S
O100 In91 2.326 . S
O100 C96 1.260 1_455 S
C101 O92 1.240 . S
C101 O93 1.252 . S
O102 In91 2.294 . S
O102 C95 1.240 . S
O103 In91 2.326 . S
O103 C95 1.252 . S
C104 C105 1.369 . S
C104 C106 1.419 1_554 S
C104 H108 0.930 . S
C105 C104 1.369 . S
C105 C114 1.429 1_545 S
C106 C104 1.419 1_556 S
C106 C107 1.363 . S
C106 H109 0.929 . S
C107 C106 1.363 . S
C107 C113 1.428 1_545 S
H108 C104 0.930 . S
H109 C106 0.929 . S
S110 N111 1.613 . S
S110 N112 1.610 1_554 S
N111 S110 1.613 . S
N111 C114 1.350 . S
N112 S110 1.610 1_556 S
N112 C113 1.351 . S
C113 C107 1.428 1_565 S
C113 N112 1.351 . S
C113 C114 1.434 1_556 S
C114 C105 1.429 1_565 S
C114 N111 1.350 . S
C114 C113 1.434 1_554 S
C115 C116 1.369 . S
C115 C117 1.419 . S
C115 H119 0.930 . S
C116 C115 1.369 . S
C116 C125 1.429 1_455 S
C117 C115 1.419 . S
C117 C118 1.363 . S
C117 H120 0.929 . S
C118 C117 1.363 . S
C118 C124 1.428 1_455 S
H119 C115 0.930 . S
H120 C117 0.929 . S
S121 N122 1.613 . S
S121 N123 1.610 . S
N122 S121 1.613 . S
N122 C125 1.350 . S
N123 S121 1.610 . S
N123 C124 1.351 . S
C124 C118 1.428 1_655 S
C124 N123 1.351 . S
C124 C125 1.434 . S
C125 C116 1.429 1_655 S
C125 N122 1.350 . S
C125 C124 1.434 . S
C126 C127 1.369 . S
C126 C128 1.419 1_556 S
C126 H130 0.930 . S
C127 C126 1.369 . S
C127 C136 1.429 . S
C128 C126 1.419 1_554 S
C128 C129 1.363 . S
C128 H131 0.929 . S
C129 C128 1.363 . S
C129 C135 1.428 . S
H130 C126 0.930 . S
H131 C128 0.929 . S
S132 N133 1.613 1_565 S
S132 N134 1.610 1_566 S
N133 S132 1.613 1_545 S
N133 C136 1.350 . S
N134 S132 1.610 1_544 S
N134 C135 1.351 . S
C135 C129 1.428 . S
C135 N134 1.351 . S
C135 C136 1.434 1_554 S
C136 C127 1.429 . S
C136 N133 1.350 . S
C136 C135 1.434 1_556 S
C137 C138 1.369 . S
C137 C139 1.419 . S
C137 H141 0.930 . S
C138 C137 1.369 . S
C138 C147 1.429 . S
C139 C137 1.419 . S
C139 C140 1.363 . S
C139 H142 0.929 . S
C140 C139 1.363 . S
C140 C146 1.428 . S
H141 C137 0.930 . S
H142 C139 0.929 . S
S143 N144 1.613 . S
S143 N145 1.610 . S
N144 S143 1.613 . S
N144 C147 1.350 . S
N145 S143 1.610 . S
N145 C146 1.351 . S
C146 C140 1.428 . S
C146 N145 1.351 . S
C146 C147 1.434 . S
C147 C138 1.429 . S
C147 N144 1.350 . S
C147 C146 1.434 . S
C148 C149 1.369 . S
C148 C150 1.419 . S
C148 H152 0.930 . S
C149 C148 1.369 . S
C149 C158 1.429 1_545 S
C150 C148 1.419 . S
C150 C151 1.363 . S
C150 H153 0.929 . S
C151 C150 1.363 . S
C151 C157 1.428 . S
H152 C148 0.930 . S
H153 C150 0.929 . S
S154 N155 1.613 . S
S154 N156 1.610 . S
N155 S154 1.613 . S
N155 C158 1.350 . S
N156 S154 1.610 . S
N156 C157 1.351 1_565 S
C157 C151 1.428 . S
C157 N156 1.351 1_545 S
C157 C158 1.434 1_545 S
C158 C149 1.429 1_565 S
C158 N155 1.350 . S
C158 C157 1.434 1_565 S
C159 C160 1.369 . S
C159 C161 1.419 . S
C159 H163 0.930 . S
C160 C159 1.369 . S
C160 C169 1.429 . S
C161 C159 1.419 . S
C161 C162 1.363 . S
C161 H164 0.929 . S
C162 C161 1.363 . S
C162 C168 1.428 . S
H163 C159 0.930 . S
H164 C161 0.929 . S
S165 N166 1.613 . S
S165 N167 1.610 . S
N166 S165 1.613 . S
N166 C169 1.350 1_655 S
N167 S165 1.610 . S
N167 C168 1.351 1_655 S
C168 C162 1.428 . S
C168 N167 1.351 1_455 S
C168 C169 1.434 . S
C169 C160 1.429 . S
C169 N166 1.350 1_455 S
C169 C168 1.434 . S
C170 C171 1.369 . S
C170 C172 1.419 . S
C170 H174 0.930 . S
C171 C170 1.369 . S
C171 C180 1.429 . S
C172 C170 1.419 . S
C172 C173 1.363 . S
C172 H175 0.929 . S
C173 C172 1.363 . S
C173 C179 1.428 . S
H174 C170 0.930 . S
H175 C172 0.929 . S
S176 N177 1.613 . S
S176 N178 1.610 1_565 S
N177 S176 1.613 . S
N177 C180 1.350 1_565 S
N178 S176 1.610 1_545 S
N178 C179 1.351 . S
C179 C173 1.428 . S
C179 N178 1.351 . S
C179 C180 1.434 . S
C180 C171 1.429 . S
C180 N177 1.350 1_545 S
C180 C179 1.434 . S
C181 C182 1.369 . S
C181 C183 1.419 . S
C181 H185 0.930 . S
C182 C181 1.369 . S
C182 C191 1.429 . S
C183 C181 1.419 . S
C183 C184 1.363 . S
C183 H186 0.929 . S
C184 C183 1.363 . S
C184 C190 1.428 . S
H185 C181 0.930 . S
H186 C183 0.929 . S
S187 N188 1.613 . S
S187 N189 1.610 . S
N188 S187 1.613 . S
N188 C191 1.350 . S
N189 S187 1.610 . S
N189 C190 1.351 . S
C190 C184 1.428 . S
C190 N189 1.351 . S
C190 C191 1.434 . S
C191 C182 1.429 . S
C191 N188 1.350 . S
C191 C190 1.434 . S
C192 C193 1.369 . S
C192 C194 1.419 . S
C192 H196 0.930 . S
C193 C192 1.369 . S
C193 C202 1.429 . S
C194 C192 1.419 . S
C194 C195 1.363 . S
C194 H197 0.929 . S
C195 C194 1.363 . S
C195 C201 1.428 . S
H196 C192 0.930 . S
H197 C194 0.929 . S
S198 N199 1.613 . S
S198 N200 1.610 . S
N199 S198 1.613 . S
N199 C202 1.350 . S
N200 S198 1.610 . S
N200 C201 1.351 . S
C201 C195 1.428 . S
C201 N200 1.351 . S
C201 C202 1.434 . S
C202 C193 1.429 . S
C202 N199 1.350 . S
C202 C201 1.434 . S
C203 C204 1.369 . S
C203 C205 1.419 . S
C203 H207 0.930 . S
C204 C203 1.369 . S
C204 C213 1.429 . S
C205 C203 1.419 . S
C205 C206 1.363 . S
C205 H208 0.929 . S
C206 C205 1.363 . S
C206 C212 1.428 . S
H207 C203 0.930 . S
H208 C205 0.929 . S
S209 N210 1.613 . S
S209 N211 1.610 . S
N210 S209 1.613 . S
N210 C213 1.350 . S
N211 S209 1.610 . S
N211 C212 1.351 . S
C212 C206 1.428 . S
C212 N211 1.351 . S
C212 C213 1.434 . S
C213 C204 1.429 . S
C213 N210 1.350 . S
C213 C212 1.434 . S
C214 C215 1.369 . S
C214 C216 1.419 . S
C214 H218 0.930 . S
C215 C214 1.369 . S
C215 C224 1.429 . S
C216 C214 1.419 . S
C216 C217 1.363 . S
C216 H219 0.929 . S
C217 C216 1.363 . S
C217 C223 1.428 . S
H218 C214 0.930 . S
H219 C216 0.929 . S
S220 N221 1.613 . S
S220 N222 1.610 1_455 S
N221 S220 1.613 . S
N221 C224 1.350 1_455 S
N222 S220 1.610 1_655 S
N222 C223 1.351 . S
C223 C217 1.428 . S
C223 N222 1.351 . S
C223 C224 1.434 . S
C224 C215 1.429 . S
C224 N221 1.350 1_655 S
C224 C223 1.434 . S
C225 C226 1.369 . S
C225 C227 1.419 . S
C225 H229 0.930 . S
C226 C225 1.369 . S
C226 C235 1.429 . S
C227 C225 1.419 . S
C227 C228 1.363 . S
C227 H230 0.929 . S
C228 C227 1.363 . S
C228 C234 1.428 . S
H229 C225 0.930 . S
H230 C227 0.929 . S
S231 N232 1.613 . S
S231 N233 1.610 . S
N232 S231 1.613 . S
N232 C235 1.350 . S
N233 S231 1.610 . S
N233 C234 1.351 . S
C234 C228 1.428 . S
C234 N233 1.351 . S
C234 C235 1.434 . S
C235 C226 1.429 . S
C235 N232 1.350 . S
C235 C234 1.434 . S
C236 C237 1.369 . S
C236 C238 1.419 . S
C236 H240 0.930 . S
C237 C236 1.369 . S
C237 C246 1.429 . S
C238 C236 1.419 . S
C238 C239 1.363 . S
C238 H241 0.929 . S
C239 C238 1.363 . S
C239 C245 1.428 . S
H240 C236 0.930 . S
H241 C238 0.929 . S
S242 N243 1.613 . S
S242 N244 1.610 . S
N243 S242 1.613 . S
N243 C246 1.350 . S
N244 S242 1.610 . S
N244 C245 1.351 . S
C245 C239 1.428 . S
C245 N244 1.351 . S
C245 C246 1.434 . S
C246 C237 1.429 . S
C246 N243 1.350 . S
C246 C245 1.434 . S
C247 C248 1.369 . S
C247 C249 1.419 . S
C247 H251 0.930 . S
C248 C247 1.369 . S
C248 C257 1.429 . S
C249 C247 1.419 . S
C249 C250 1.363 . S
C249 H252 0.929 . S
C250 C249 1.363 . S
C250 C256 1.428 . S
H251 C247 0.930 . S
H252 C249 0.929 . S
S253 N254 1.613 . S
S253 N255 1.610 . S
N254 S253 1.613 . S
N254 C257 1.350 . S
N255 S253 1.610 . S
N255 C256 1.351 . S
C256 C250 1.428 . S
C256 N255 1.351 . S
C256 C257 1.434 . S
C257 C248 1.429 . S
C257 N254 1.350 . S
C257 C256 1.434 . S
C258 C259 1.369 . S
C258 C260 1.419 . S
C258 H262 0.930 . S
C259 C258 1.369 . S
C259 C268 1.429 . S
C260 C258 1.419 . S
C260 C261 1.363 . S
C260 H263 0.929 . S
C261 C260 1.363 . S
C261 C267 1.428 . S
H262 C258 0.930 . S
H263 C260 0.929 . S
S264 N265 1.613 . S
S264 N266 1.610 . S
N265 S264 1.613 . S
N265 C268 1.350 . S
N266 S264 1.610 . S
N266 C267 1.351 . S
C267 C261 1.428 . S
C267 N266 1.351 . S
C267 C268 1.434 . S
C268 C259 1.429 . S
C268 N265 1.350 . S
C268 C267 1.434 . S
C269 C270 1.369 . S
C269 C271 1.419 . S
C269 H273 0.930 . S
C270 C269 1.369 . S
C270 C279 1.429 . S
C271 C269 1.419 . S
C271 C272 1.363 . S
C271 H274 0.929 . S
C272 C271 1.363 . S
C272 C278 1.428 . S
H273 C269 0.930 . S
H274 C271 0.929 . S
S275 N276 1.613 . S
S275 N277 1.610 . S
N276 S275 1.613 . S
N276 C279 1.350 . S
N277 S275 1.610 . S
N277 C278 1.351 . S
C278 C272 1.428 . S
C278 N277 1.351 . S
C278 C279 1.434 . S
C279 C270 1.429 . S
C279 N276 1.350 . S
C279 C278 1.434 . S
C105 C4 1.595 . S
C107 C62 1.598 . S
C116 C17 1.598 . S
C118 C69 1.595 . S
C127 C88 1.597 . S
C129 C30 1.597 . S
C138 C101 1.597 . S
C140 C49 1.596 . S
C149 C10 1.478 . S
C151 C36 1.471 . S
C160 C23 1.472 . S
C162 C43 1.475 . S
C171 C82 1.476 . S
C173 C56 1.471 . S
C182 C75 1.472 . S
C184 C95 1.476 . S
C193 C68 1.621 . S
C195 C3 1.619 . S
C204 C16 1.621 . S
C206 C83 1.618 . S
C215 C96 1.619 . S
C217 C29 1.620 . S
C226 C44 1.618 . S
C228 C57 1.621 . S
C237 C81 1.327 . S
C239 C42 1.323 . S
C248 C5 1.328 . S
C250 C94 1.327 . S
C259 C18 1.328 . S
C261 C55 1.323 . S
C270 C70 1.322 . S
C272 C31 1.328 . S
