# Generated by pormake.
# Topology dft, (4)-cn, num edge types: 1
# Building blocks:
#     Node 0, Type 0, BuildingBlock: GALJAG_clean_sbu_0, # of connection points: 4
#     Node 1, Type 0, BuildingBlock: GALJAG_clean_sbu_0, # of connection points: 4
#     Node 2, Type 0, BuildingBlock: GALJAG_clean_sbu_0, # of connection points: 4
#     Node 3, Type 0, BuildingBlock: GALJAG_clean_sbu_0, # of connection points: 4
#     Node 4, Type 0, BuildingBlock: GALJAG_clean_sbu_0, # of connection points: 4
#     Node 5, Type 0, BuildingBlock: GALJAG_clean_sbu_0, # of connection points: 4
#     Node 6, Type 0, BuildingBlock: GALJAG_clean_sbu_0, # of connection points: 4
#     Node 7, Type 0, BuildingBlock: GALJAG_clean_sbu_0, # of connection points: 4
#     Edge 8, Type (0, 0), BuildingBlock: XIVTED_clean_linker_0, # of connection points: 2
#     Edge 9, Type (0, 0), BuildingBlock: XIVTED_clean_linker_0, # of connection points: 2
#     Edge 10, Type (0, 0), BuildingBlock: XIVTED_clean_linker_0, # of connection points: 2
#     Edge 11, Type (0, 0), BuildingBlock: XIVTED_clean_linker_0, # of connection points: 2
#     Edge 12, Type (0, 0), BuildingBlock: XIVTED_clean_linker_0, # of connection points: 2
#     Edge 13, Type (0, 0), BuildingBlock: XIVTED_clean_linker_0, # of connection points: 2
#     Edge 14, Type (0, 0), BuildingBlock: XIVTED_clean_linker_0, # of connection points: 2
#     Edge 15, Type (0, 0), BuildingBlock: XIVTED_clean_linker_0, # of connection points: 2
#     Edge 16, Type (0, 0), BuildingBlock: XIVTED_clean_linker_0, # of connection points: 2
#     Edge 17, Type (0, 0), BuildingBlock: XIVTED_clean_linker_0, # of connection points: 2
#     Edge 18, Type (0, 0), BuildingBlock: XIVTED_clean_linker_0, # of connection points: 2
#     Edge 19, Type (0, 0), BuildingBlock: XIVTED_clean_linker_0, # of connection points: 2
#     Edge 20, Type (0, 0), BuildingBlock: XIVTED_clean_linker_0, # of connection points: 2
#     Edge 21, Type (0, 0), BuildingBlock: XIVTED_clean_linker_0, # of connection points: 2
#     Edge 22, Type (0, 0), BuildingBlock: XIVTED_clean_linker_0, # of connection points: 2
#     Edge 23, Type (0, 0), BuildingBlock: XIVTED_clean_linker_0, # of connection points: 2
# Relax obj value: 0.096
# Max RMSD: 0.146
# Mean RMSD: 0.146
data_MOF--net-dft--node1-GALJAG_clean_sbu_0--edge1-XIVTED_clean_linker_0
_symmetry_space_group_name_H-M    P1
_symmetry_Int_Tables_number       1
_symmetry_cell_setting            triclinic
loop_
_symmetry_equiv_pos_as_xyz
'x, y, z'
_cell_length_a     33.911543
_cell_length_b     33.906836
_cell_length_c     45.373306
_cell_angle_alpha  89.997108
_cell_angle_beta   90.17426
_cell_angle_gamma 89.941503
loop_
_atom_site_label
_atom_site_type_symbol
_atom_site_fract_x
_atom_site_fract_y
_atom_site_fract_z
_atom_type_partial_charge
In0 In 0.31272 0.02653 0.16502 0.0
O1 O 0.36894 0.06185 0.157 0.0
O2 O 0.37283 0.011 0.1842 0.0
C3 C 0.26627 0.08101 0.19127 0.0
C4 C 0.30303 0.02088 0.10608 0.0
C5 C 0.28991 0.95966 0.19197 0.0
O6 O 0.30299 0.08552 0.18864 0.0
O7 O 0.25304 0.0497 0.18007 0.0
O8 O 0.28528 0.96534 0.1647 0.0
O9 O 0.30668 0.98747 0.20557 0.0
C10 C 0.39053 0.03956 0.17239 0.0
O11 O 0.2862 0.04712 0.12125 0.0
O12 O 0.32476 -0.00225 0.1206 0.0
In13 In 0.04723 0.3111 0.67076 0.0
O14 O 0.01089 0.36656 0.66211 0.0
O15 O 0.06144 0.37186 0.68952 0.0
C16 C -0.00673 0.26333 0.69612 0.0
C17 C 0.0522 0.30058 0.61193 0.0
C18 C 0.11458 0.28928 0.69776 0.0
O19 O 0.9878 0.29994 0.6933 0.0
O20 O 0.02553 0.251 0.68596 0.0
O21 O 0.10942 0.286 0.67032 0.0
O22 O 0.08599 0.30434 0.71155 0.0
C23 C 0.0327 0.38887 0.67724 0.0
O24 O 0.07526 0.32286 0.62602 0.0
O25 O 0.02664 0.28351 0.6275 0.0
In26 In 0.76302 0.05344 0.16276 0.0
O27 O 0.7056 0.03313 0.18395 0.0
O28 O 0.70267 0.08002 0.15301 0.0
C29 C 0.8104 -0.0031 0.18552 0.0
C30 C 0.77078 0.04452 0.10394 0.0
C31 C 0.78832 0.11768 0.19207 0.0
O32 O 0.77372 0.99219 0.1825 0.0
O33 O 0.82313 0.02971 0.17665 0.0
O34 O 0.79582 0.11171 0.16523 0.0
O35 O 0.76755 0.0914 0.20414 0.0
C36 C 0.68427 0.05755 0.17027 0.0
O37 O 0.77864 0.07629 0.11709 0.0
O38 O 0.75937 0.01694 0.12048 0.0
In39 In 0.02139 0.76128 0.65723 0.0
O40 O -0.00087 0.77809 0.61157 0.0
O41 O 0.05744 0.75578 0.61479 0.0
C42 C 0.95646 0.78576 0.68604 0.0
C43 C 0.01897 0.68266 0.66641 0.0
C44 C 0.07635 0.81005 0.68045 0.0
O45 O 0.96126 0.79093 0.65877 0.0
O46 O 0.98415 0.76756 0.69877 0.0
O47 O 0.08147 0.77331 0.67844 0.0
O48 O 0.04411 0.82225 0.66998 0.0
C49 C 0.03032 0.76866 0.59831 0.0
O50 O 0.04378 0.70482 0.67883 0.0
O51 O -0.00471 0.70012 0.64936 0.0
In52 In 0.30344 0.03414 0.82809 0.0
O53 O 0.27435 0.04829 0.87206 0.0
O54 O 0.31342 -0.00047 0.87084 0.0
C55 C 0.28515 0.10316 0.80211 0.0
C56 C 0.38241 0.03675 0.82172 0.0
C57 C 0.25574 0.98217 0.80007 0.0
O58 O 0.28151 0.09747 0.82944 0.0
O59 O 0.29862 0.07416 0.78788 0.0
O60 O 0.29191 0.97559 0.8043 0.0
O61 O 0.24355 0.01429 0.81061 0.0
C62 C 0.29108 0.02099 0.88615 0.0
O63 O 0.36135 0.01077 0.80951 0.0
O64 O 0.36365 0.06132 0.83713 0.0
In65 In 0.03622 0.30704 0.33351 0.0
O66 O 0.05805 0.36522 0.31444 0.0
O67 O 0.00804 0.36681 0.34252 0.0
C68 C 0.08972 0.25857 0.30826 0.0
C69 C 0.04786 0.29679 0.39191 0.0
C70 C 0.97003 0.28608 0.30467 0.0
O71 O 0.09514 0.29525 0.31046 0.0
O72 O 0.05799 0.24643 0.31938 0.0
O73 O 0.97477 0.28025 0.33192 0.0
O74 O -0.0015 0.30295 0.29205 0.0
C75 C 0.03181 0.38587 0.32666 0.0
O76 O 0.01809 0.2837 0.37846 0.0
O77 O 0.07222 0.3148 0.37586 0.0
In78 In 0.75595 0.03012 0.82445 0.0
O79 O 0.75159 0.00175 0.86998 0.0
O80 O 0.77244 0.06063 0.86752 0.0
C81 C 0.78277 0.96495 0.79733 0.0
C82 C 0.67713 0.03706 0.81739 0.0
C83 C 0.80362 0.08322 0.79822 0.0
O84 O 0.78757 0.9709 0.82458 0.0
O85 O 0.76401 0.99167 0.78388 0.0
O86 O 0.76656 0.08467 0.79567 0.0
O87 O 0.81629 0.05546 0.81411 0.0
C88 C 0.76404 0.03161 0.88367 0.0
O89 O 0.6983 0.06512 0.82644 0.0
O90 O 0.69574 0.00589 0.81154 0.0
In91 In 0.03938 0.75817 0.31857 0.0
O92 O 0.06759 0.7504 0.3639 0.0
O93 O 0.01116 0.77746 0.36183 0.0
C94 C 0.10689 0.78224 0.29347 0.0
C95 C 0.02969 0.67975 0.31134 0.0
C96 C 0.98789 0.80718 0.29138 0.0
O97 O 0.09961 0.78752 0.32046 0.0
O98 O 0.08026 0.76443 0.27925 0.0
O99 O 0.98435 0.77016 0.29027 0.0
O100 O 0.01672 0.81914 0.30647 0.0
C101 C 0.03935 0.76577 0.3778 0.0
O102 O 0.00432 0.701 0.32398 0.0
O103 O 0.05926 0.69817 0.30184 0.0
H104 H 0.33722 0.96747 0.06903 0.0
H105 H 0.2455 0.06466 0.92341 0.0
H106 H 0.25752 0.06677 0.06985 0.0
H107 H 0.3287 0.96829 0.92227 0.0
H108 H 0.2449 0.06194 0.9772 0.0
H109 H 0.33037 0.9638 0.01547 0.0
C110 C 0.31817 0.98844 0.05793 0.0
C111 C 0.29809 0.01764 0.07385 0.0
C112 C 0.2631 0.04119 0.96521 0.0
C113 C 0.29008 0.0136 0.01258 0.0
C114 C 0.26337 0.04266 0.93449 0.0
C115 C 0.28739 0.01681 0.9184 0.0
C116 C 0.28712 0.01374 0.97996 0.0
C117 C 0.30986 0.98885 0.93386 0.0
C118 C 0.31424 0.9863 0.02735 0.0
C119 C 0.27369 0.04392 0.05838 0.0
N120 N 0.30939 0.98824 0.96381 0.0
N121 N 0.27048 0.04138 0.02858 0.0
H122 H 0.00483 0.25554 0.57669 0.0
H123 H 0.10587 0.32806 0.42686 0.0
H124 H 0.1043 0.33471 0.57385 0.0
H125 H 0.00022 0.25738 0.43021 0.0
H126 H 0.10992 0.32548 0.4807 0.0
H127 H 0.00672 0.2506 0.52298 0.0
C128 C 0.02718 0.27175 0.56475 0.0
C129 C 0.05427 0.29578 0.57967 0.0
C130 C 0.08598 0.31035 0.46964 0.0
C131 C 0.05662 0.29036 0.51826 0.0
C132 C 0.08372 0.31175 0.43893 0.0
C133 C 0.05252 0.29312 0.42412 0.0
C134 C 0.05686 0.29014 0.48559 0.0
C135 C 0.02464 0.27235 0.44079 0.0
C136 C 0.02825 0.26895 0.53409 0.0
C137 C 0.08273 0.316 0.56316 0.0
N138 N 0.02737 0.27157 0.47064 0.0
N139 N 0.08305 0.31297 0.5333 0.0
H140 H 0.78985 0.09279 0.9177 0.0
H141 H 0.75284 0.98006 0.07024 0.0
H142 H 0.74703 0.9732 0.92319 0.0
H143 H 0.79368 0.10028 0.06417 0.0
H144 H 0.75361 0.97566 0.01642 0.0
H145 H 0.79437 0.09492 0.97141 0.0
C146 C 0.78149 0.06693 0.93024 0.0
C147 C 0.76791 0.03281 0.91603 0.0
C148 C 0.76256 0.00295 0.02686 0.0
C149 C 0.77297 0.03502 0.97749 0.0
C150 C 0.76217 0.00544 0.05757 0.0
C151 C 0.77308 0.04062 0.07163 0.0
C152 C 0.77391 0.0359 0.01015 0.0
C153 C 0.78494 0.07262 0.0542 0.0
C154 C 0.78409 0.06815 0.9609 0.0
C155 C 0.75756 0.00014 0.93331 0.0
N156 N 0.78491 0.06953 0.02436 0.0
N157 N 0.7602 0.00208 0.96316 0.0
H158 H 0.98155 0.79697 0.41254 0.0
H159 H 0.09274 0.74623 0.56399 0.0
H160 H 0.0963 0.74207 0.41675 0.0
H161 H 0.97594 0.79649 0.55907 0.0
H162 H 0.09639 0.7478 0.51012 0.0
H163 H 0.98063 0.80032 0.46632 0.0
C164 C 0.00661 0.78572 0.42481 0.0
C165 C 0.03899 0.76909 0.41021 0.0
C166 C 0.07002 0.75862 0.52083 0.0
C167 C 0.03816 0.77276 0.47175 0.0
C168 C 0.06797 0.75778 0.55157 0.0
C169 C 0.03395 0.77113 0.56597 0.0
C170 C 0.03782 0.77293 0.50444 0.0
C171 C 0.0027 0.7858 0.54884 0.0
C172 C 0.00608 0.78762 0.45551 0.0
C173 C 0.0707 0.75504 0.42716 0.0
N174 N 0.00535 0.78621 0.51899 0.0
N175 N 0.06945 0.7571 0.45706 0.0
H176 H 0.44222 -0.00333 0.20565 0.0
H177 H 0.63243 0.10724 0.14284 0.0
H178 H 0.43636 0.09538 0.14574 0.0
H179 H 0.63782 0.01043 0.20448 0.0
H180 H 0.56051 0.10606 0.1459 0.0
H181 H 0.5138 0.00393 0.20786 0.0
C182 C 0.45602 0.02002 0.19308 0.0
C183 C 0.43343 0.04532 0.17534 0.0
C184 C 0.5774 0.08522 0.15889 0.0
C185 C 0.5153 0.05371 0.17764 0.0
C186 C 0.61845 0.08588 0.15715 0.0
C187 C 0.64103 0.05872 0.1733 0.0
C188 C 0.55883 0.0571 0.17684 0.0
C189 C 0.62147 0.03177 0.19156 0.0
C190 C 0.49688 0.02416 0.19435 0.0
C191 C 0.45275 0.07516 0.15961 0.0
N192 N 0.58146 0.0315 0.19271 0.0
N193 N 0.49264 0.07839 0.16099 0.0
H194 H 0.97537 0.43261 0.65018 0.0
H195 H 0.06723 0.63878 0.70183 0.0
H196 H 0.07641 0.44291 0.70772 0.0
H197 H 0.96941 0.62868 0.64125 0.0
H198 H 0.06766 0.56712 0.70739 0.0
H199 H 0.96911 0.50444 0.64993 0.0
C200 C -0.00396 0.45 0.66296 0.0
C201 C 0.02659 0.43187 0.67886 0.0
C202 C 0.04598 0.58055 0.69297 0.0
C203 C 0.01977 0.51398 0.67856 0.0
C204 C 0.04574 0.62146 0.68979 0.0
C205 C 0.01839 0.63961 0.67092 0.0
C206 C 0.01872 0.55763 0.67713 0.0
C207 C 0.9911 0.61581 0.65594 0.0
C208 C 0.99251 0.491 0.66276 0.0
C209 C 0.05252 0.45575 0.69506 0.0
N210 N 0.99207 0.57601 0.65926 0.0
N211 N 0.04865 0.49561 0.69437 0.0
H212 H 0.62944 0.09819 0.83401 0.0
H213 H 0.42989 0.9842 0.79305 0.0
H214 H 0.62636 0.98158 0.79597 0.0
H215 H 0.43319 0.09219 0.84333 0.0
H216 H 0.5018 0.9859 0.78948 0.0
H217 H 0.5573 0.09981 0.83301 0.0
C218 C 0.61357 0.07306 0.82526 0.0
C219 C 0.63382 0.03964 0.81518 0.0
C220 C 0.4868 0.00928 0.80124 0.0
C221 C 0.55146 0.04121 0.81402 0.0
C222 C 0.44577 0.00833 0.80325 0.0
C223 C 0.42565 0.038 0.81862 0.0
C224 C 0.5078 0.0402 0.81461 0.0
C225 C 0.44762 0.06863 0.83138 0.0
C226 C 0.57242 0.07394 0.82477 0.0
C227 C 0.61186 0.00788 0.80407 0.0
N228 N 0.48754 0.06892 0.82913 0.0
N229 N 0.57185 0.0094 0.80385 0.0
H230 H 0.97722 0.43619 0.35 0.0
H231 H 0.07935 0.62891 0.28331 0.0
H232 H 0.07994 0.43339 0.29411 0.0
H233 H 0.97386 0.6321 0.33622 0.0
H234 H 0.07791 0.55698 0.2849 0.0
H235 H 0.97374 0.50771 0.34362 0.0
C236 C -0.00099 0.45065 0.33634 0.0
C237 C 0.02903 0.42893 0.32266 0.0
C238 C 0.0549 0.57335 0.29601 0.0
C239 C 0.02521 0.51064 0.31523 0.0
C240 C 0.05568 0.61442 0.29507 0.0
C241 C 0.02679 0.63643 0.30979 0.0
C242 C 0.02514 0.55412 0.31195 0.0
C243 C -0.00326 0.6162 0.32462 0.0
C244 C -0.00304 0.49145 0.33266 0.0
C245 C 0.0564 0.44907 0.30514 0.0
N246 N -0.00315 0.57613 0.3255 0.0
N247 N 0.05391 0.48883 0.302 0.0
H248 H 0.07892 0.18094 0.29518 0.0
H249 H 0.28593 0.15343 0.21381 0.0
H250 H 0.16212 0.27614 0.28488 0.0
H251 H 0.1892 0.07141 0.20637 0.0
H252 H 0.24375 0.19725 0.24304 0.0
H253 H 0.12221 0.13826 0.26648 0.0
C254 C 0.10646 0.1928 0.28701 0.0
C255 C 0.11695 0.23214 0.29237 0.0
C256 C 0.23178 0.16972 0.23489 0.0
C257 C 0.16664 0.18345 0.25939 0.0
C258 C 0.25579 0.14475 0.21822 0.0
C259 C 0.24097 0.1088 0.20764 0.0
C260 C 0.19289 0.15837 0.24125 0.0
C261 C 0.20177 0.09891 0.21402 0.0
C262 C 0.13107 0.16847 0.2705 0.0
C263 C 0.15293 0.24597 0.2812 0.0
N264 N 0.17918 0.12345 0.23052 0.0
N265 N 0.17656 0.22162 0.26523 0.0
H266 H 0.00492 0.18716 0.71297 0.0
H267 H 0.78481 0.15148 0.76885 0.0
H268 H 0.91711 0.27936 0.71246 0.0
H269 H 0.88341 0.07784 0.79348 0.0
H270 H 0.83056 0.19621 0.74363 0.0
H271 H 0.95825 0.14374 0.73781 0.0
C272 C 0.97573 0.19822 0.71802 0.0
C273 C 0.96483 0.2369 0.7107 0.0
C274 C 0.84209 0.1703 0.75465 0.0
C275 C 0.91121 0.18732 0.73904 0.0
C276 C 0.81605 0.14477 0.76896 0.0
C277 C 0.83041 0.11098 0.78327 0.0
C278 C 0.88259 0.16157 0.75438 0.0
C279 C 0.87111 0.10363 0.78278 0.0
C280 C 0.94916 0.17348 0.7323 0.0
C281 C 0.92667 0.24974 0.71782 0.0
N282 N 0.89573 0.1286 0.76845 0.0
N283 N 0.9011 0.22492 0.73153 0.0
H284 H -0.00247 0.88619 0.28394 0.0
H285 H 0.79211 0.92119 0.20163 0.0
H286 H 0.91828 0.79071 0.26286 0.0
H287 H 0.88738 0.00547 0.20166 0.0
H288 H 0.8352 0.87384 0.22698 0.0
H289 H 0.95452 0.93155 0.25722 0.0
C290 C 0.97097 0.87479 0.27374 0.0
C291 C 0.96141 0.83465 0.27562 0.0
C292 C 0.84666 0.90263 0.22128 0.0
C293 C 0.91195 0.88648 0.24499 0.0
C294 C 0.82212 0.92964 0.20687 0.0
C295 C 0.83624 0.96727 0.19957 0.0
C296 C 0.88536 0.91359 0.22872 0.0
C297 C 0.87532 0.97675 0.20684 0.0
C298 C 0.9465 0.90068 0.25837 0.0
C299 C 0.9267 0.82147 0.26189 0.0
N300 N 0.89842 0.95018 0.22116 0.0
N301 N 0.90307 0.84739 0.24722 0.0
H302 H 0.06723 0.88823 0.6929 0.0
H303 H 0.27334 0.90903 0.77799 0.0
H304 H 0.14878 0.79144 0.70345 0.0
H305 H 0.18002 -0.00457 0.78228 0.0
H306 H 0.23082 0.86714 0.74743 0.0
H307 H 0.11145 0.9301 0.72171 0.0
C308 C 0.09462 0.87588 0.70109 0.0
C309 C 0.10435 0.8363 0.69585 0.0
C310 C 0.21965 0.89522 0.75515 0.0
C311 C 0.15501 0.88398 0.72899 0.0
C312 C 0.24386 0.91909 0.77259 0.0
C313 C 0.2301 0.95567 0.78273 0.0
C314 C 0.18159 0.90825 0.7476 0.0
C315 C 0.19174 0.96737 0.77503 0.0
C316 C 0.11976 0.89973 0.71767 0.0
C317 C 0.14016 0.82181 0.70704 0.0
N318 N 0.16889 0.9438 0.75785 0.0
N319 N 0.16422 0.84564 0.72314 0.0
H320 H 0.82673 0.90517 0.82103 0.0
H321 H 0.89385 0.82641 0.66334 0.0
H322 H 0.77926 0.94776 0.7386 0.0
H323 H 0.94365 0.78553 0.74549 0.0
H324 H 0.8443 0.86335 0.69087 0.0
H325 H 0.86238 0.85385 0.7942 0.0
C326 C 0.82346 0.90341 0.79731 0.0
C327 C 0.80046 0.93102 0.78194 0.0
C328 C 0.86575 0.84594 0.7029 0.0
C329 C 0.84128 0.87264 0.75111 0.0
C330 C 0.89402 0.82481 0.68719 0.0
C331 C 0.92317 0.80334 0.70221 0.0
C332 C 0.86685 0.84581 0.73385 0.0
C333 C 0.92187 0.80202 0.73308 0.0
C334 C 0.84383 0.87414 0.782 0.0
C335 C 0.79701 0.92727 0.75126 0.0
N336 N 0.89446 0.8234 0.74792 0.0
N337 N 0.81756 0.89889 0.73682 0.0
H338 H 0.29191 0.94321 0.25091 0.0
H339 H 0.1279 0.77637 0.23559 0.0
H340 H 0.24951 0.89799 0.16776 0.0
H341 H 0.16571 0.82591 0.31859 0.0
H342 H 0.18118 0.81168 0.21093 0.0
H343 H 0.25514 0.89159 0.27642 0.0
C344 C 0.27532 0.92204 0.238 0.0
C345 C 0.27318 0.9252 0.20723 0.0
C346 C 0.17815 0.81446 0.23459 0.0
C347 C 0.23082 0.86638 0.23621 0.0
C348 C 0.14775 0.79429 0.24867 0.0
C349 C 0.14207 0.79878 0.27908 0.0
C350 C 0.20283 0.83946 0.25104 0.0
C351 C 0.16882 0.82203 0.29503 0.0
C352 C 0.25429 0.89262 0.25257 0.0
C353 C 0.25154 0.89686 0.19156 0.0
N354 N 0.19777 0.84193 0.28075 0.0
N355 N 0.23077 0.86892 0.20625 0.0
H356 H 0.17772 0.252 0.673 0.0
H357 H 0.25018 0.16708 0.82772 0.0
H358 H 0.13008 0.28793 0.75691 0.0
H359 H 0.28705 0.12126 0.74345 0.0
H360 H 0.21725 0.22166 0.80249 0.0
H361 H 0.22887 0.21464 0.6988 0.0
C362 C 0.17841 0.25253 0.69686 0.0
C363 C 0.14926 0.27248 0.71288 0.0
C364 C 0.233 0.19997 0.78953 0.0
C365 C 0.20741 0.22959 0.74251 0.0
C366 C 0.25185 0.16885 0.80392 0.0
C367 C 0.27076 0.1393 0.78758 0.0
C368 C 0.23299 0.20142 0.7586 0.0
C369 C 0.27234 0.14319 0.75684 0.0
C370 C 0.20757 0.23114 0.71158 0.0
C371 C 0.15174 0.27252 0.74373 0.0
N372 N 0.25323 0.17341 0.7433 0.0
N373 N 0.17999 0.2509 0.75757 0.0
H374 H 0.95426 0.29329 0.24587 0.0
H375 H 0.78226 0.13325 0.25103 0.0
H376 H 0.90775 0.24416 0.32632 0.0
H377 H 0.83448 0.177 0.17082 0.0
H378 H 0.81933 0.18261 0.27895 0.0
H379 H 0.90209 0.26006 0.21821 0.0
C380 C 0.93274 0.2759 0.25775 0.0
C381 C 0.93562 0.27093 0.28834 0.0
C382 C 0.82231 0.18174 0.2552 0.0
C383 C 0.87611 0.23259 0.25687 0.0
C384 C 0.80111 0.15362 0.23927 0.0
C385 C 0.80582 0.15071 0.20866 0.0
C386 C 0.84845 0.20695 0.24038 0.0
C387 C 0.83038 0.17795 0.19447 0.0
C388 C 0.90299 0.25691 0.24195 0.0
C389 C 0.9068 0.24839 0.30267 0.0
N390 N 0.85113 0.20466 0.21049 0.0
N391 N 0.8785 0.22963 0.28676 0.0
loop_
_geom_bond_atom_site_label_1
_geom_bond_atom_site_label_2
_geom_bond_distance
_geom_bond_site_symmetry_2
_ccdc_geom_bond_type
In0 O1 2.294 . S
In0 O2 2.326 1_545 S
In0 O6 2.266 . S
In0 O7 2.326 . S
In0 O8 2.266 1_545 S
In0 O9 2.326 . S
In0 O11 2.294 . S
In0 O12 2.326 . S
O1 In0 2.294 . S
O1 C10 1.240 . S
O2 In0 2.326 1_565 S
O2 C10 1.252 1_565 S
C3 O6 1.252 . S
C3 O7 1.260 . S
C4 O11 1.240 . S
C4 O12 1.252 . S
C5 O8 1.252 . S
C5 O9 1.260 1_565 S
O6 In0 2.266 . S
O6 C3 1.252 . S
O7 In0 2.326 . S
O7 C3 1.260 . S
O8 In0 2.266 1_565 S
O8 C5 1.252 . S
O9 In0 2.326 . S
O9 C5 1.260 1_545 S
C10 O1 1.240 . S
C10 O2 1.252 1_545 S
O11 In0 2.294 . S
O11 C4 1.240 . S
O12 In0 2.326 . S
O12 C4 1.252 . S
In13 O14 2.294 . S
In13 O15 2.326 . S
In13 O19 2.266 . S
In13 O20 2.326 . S
In13 O21 2.266 . S
In13 O22 2.326 . S
In13 O24 2.294 . S
In13 O25 2.326 . S
O14 In13 2.294 . S
O14 C23 1.240 . S
O15 In13 2.326 . S
O15 C23 1.252 . S
C16 O19 1.252 . S
C16 O20 1.260 . S
C17 O24 1.240 . S
C17 O25 1.252 . S
C18 O21 1.252 . S
C18 O22 1.260 . S
O19 In13 2.266 . S
O19 C16 1.252 . S
O20 In13 2.326 . S
O20 C16 1.260 . S
O21 In13 2.266 . S
O21 C18 1.252 . S
O22 In13 2.326 . S
O22 C18 1.260 . S
C23 O14 1.240 . S
C23 O15 1.252 . S
O24 In13 2.294 . S
O24 C17 1.240 . S
O25 In13 2.326 . S
O25 C17 1.252 . S
In26 O27 2.294 . S
In26 O28 2.326 . S
In26 O32 2.266 . S
In26 O33 2.326 . S
In26 O34 2.266 . S
In26 O35 2.326 . S
In26 O37 2.294 . S
In26 O38 2.326 . S
O27 In26 2.294 . S
O27 C36 1.240 . S
O28 In26 2.326 . S
O28 C36 1.252 . S
C29 O32 1.252 . S
C29 O33 1.260 . S
C30 O37 1.240 . S
C30 O38 1.252 . S
C31 O34 1.252 . S
C31 O35 1.260 . S
O32 In26 2.266 . S
O32 C29 1.252 . S
O33 In26 2.326 . S
O33 C29 1.260 . S
O34 In26 2.266 . S
O34 C31 1.252 . S
O35 In26 2.326 . S
O35 C31 1.260 . S
C36 O27 1.240 . S
C36 O28 1.252 . S
O37 In26 2.294 . S
O37 C30 1.240 . S
O38 In26 2.326 . S
O38 C30 1.252 . S
In39 O40 2.294 . S
In39 O41 2.326 . S
In39 O45 2.266 1_455 S
In39 O46 2.326 . S
In39 O47 2.266 . S
In39 O48 2.326 . S
In39 O50 2.294 . S
In39 O51 2.326 1_455 S
O40 In39 2.294 . S
O40 C49 1.240 . S
O41 In39 2.326 . S
O41 C49 1.252 . S
C42 O45 1.252 . S
C42 O46 1.260 1_655 S
C43 O50 1.240 . S
C43 O51 1.252 1_455 S
C44 O47 1.252 . S
C44 O48 1.260 . S
O45 In39 2.266 1_655 S
O45 C42 1.252 . S
O46 In39 2.326 . S
O46 C42 1.260 1_455 S
O47 In39 2.266 . S
O47 C44 1.252 . S
O48 In39 2.326 . S
O48 C44 1.260 . S
C49 O40 1.240 . S
C49 O41 1.252 . S
O50 In39 2.294 . S
O50 C43 1.240 . S
O51 In39 2.326 1_655 S
O51 C43 1.252 1_655 S
In52 O53 2.294 . S
In52 O54 2.326 . S
In52 O58 2.266 . S
In52 O59 2.326 . S
In52 O60 2.266 . S
In52 O61 2.326 . S
In52 O63 2.294 . S
In52 O64 2.326 . S
O53 In52 2.294 . S
O53 C62 1.240 . S
O54 In52 2.326 . S
O54 C62 1.252 . S
C55 O58 1.252 . S
C55 O59 1.260 . S
C56 O63 1.240 . S
C56 O64 1.252 . S
C57 O60 1.252 . S
C57 O61 1.260 . S
O58 In52 2.266 . S
O58 C55 1.252 . S
O59 In52 2.326 . S
O59 C55 1.260 . S
O60 In52 2.266 . S
O60 C57 1.252 . S
O61 In52 2.326 . S
O61 C57 1.260 . S
C62 O53 1.240 . S
C62 O54 1.252 . S
O63 In52 2.294 . S
O63 C56 1.240 . S
O64 In52 2.326 . S
O64 C56 1.252 . S
In65 O66 2.294 . S
In65 O67 2.326 1_455 S
In65 O71 2.266 . S
In65 O72 2.326 . S
In65 O73 2.266 1_455 S
In65 O74 2.326 . S
In65 O76 2.294 . S
In65 O77 2.326 . S
O66 In65 2.294 . S
O66 C75 1.240 . S
O67 In65 2.326 1_655 S
O67 C75 1.252 1_655 S
C68 O71 1.252 . S
C68 O72 1.260 . S
C69 O76 1.240 . S
C69 O77 1.252 . S
C70 O73 1.252 . S
C70 O74 1.260 1_655 S
O71 In65 2.266 . S
O71 C68 1.252 . S
O72 In65 2.326 . S
O72 C68 1.260 . S
O73 In65 2.266 1_655 S
O73 C70 1.252 . S
O74 In65 2.326 . S
O74 C70 1.260 1_455 S
C75 O66 1.240 . S
C75 O67 1.252 1_455 S
O76 In65 2.294 . S
O76 C69 1.240 . S
O77 In65 2.326 . S
O77 C69 1.252 . S
In78 O79 2.294 . S
In78 O80 2.326 . S
In78 O84 2.266 1_545 S
In78 O85 2.326 . S
In78 O86 2.266 . S
In78 O87 2.326 . S
In78 O89 2.294 . S
In78 O90 2.326 1_545 S
O79 In78 2.294 . S
O79 C88 1.240 . S
O80 In78 2.326 . S
O80 C88 1.252 . S
C81 O84 1.252 . S
C81 O85 1.260 1_565 S
C82 O89 1.240 . S
C82 O90 1.252 1_545 S
C83 O86 1.252 . S
C83 O87 1.260 . S
O84 In78 2.266 1_565 S
O84 C81 1.252 . S
O85 In78 2.326 . S
O85 C81 1.260 1_545 S
O86 In78 2.266 . S
O86 C83 1.252 . S
O87 In78 2.326 . S
O87 C83 1.260 . S
C88 O79 1.240 . S
C88 O80 1.252 . S
O89 In78 2.294 . S
O89 C82 1.240 . S
O90 In78 2.326 1_565 S
O90 C82 1.252 1_565 S
In91 O92 2.294 . S
In91 O93 2.326 . S
In91 O97 2.266 . S
In91 O98 2.326 . S
In91 O99 2.266 . S
In91 O100 2.326 . S
In91 O102 2.294 . S
In91 O103 2.326 . S
O92 In91 2.294 . S
O92 C101 1.240 . S
O93 In91 2.326 . S
O93 C101 1.252 . S
C94 O97 1.252 . S
C94 O98 1.260 . S
C95 O102 1.240 . S
C95 O103 1.252 . S
C96 O99 1.252 . S
C96 O100 1.260 . S
O97 In91 2.266 . S
O97 C94 1.252 . S
O98 In91 2.326 . S
O98 C94 1.260 . S
O99 In91 2.266 . S
O99 C96 1.252 . S
O100 In91 2.326 . S
O100 C96 1.260 . S
C101 O92 1.240 . S
C101 O93 1.252 . S
O102 In91 2.294 . S
O102 C95 1.240 . S
O103 In91 2.326 . S
O103 C95 1.252 . S
H104 C110 0.930 . S
H105 C114 0.930 . S
H106 C119 0.929 . S
H107 C117 0.929 . S
H108 C112 0.929 . S
H109 C118 0.929 . S
C110 H104 0.930 . S
C110 C111 1.367 . S
C110 C118 1.378 . S
C111 C110 1.367 . S
C111 C119 1.433 . S
C112 H108 0.929 . S
C112 C114 1.378 . S
C112 C116 1.350 . S
C113 C116 1.463 1_554 S
C113 C118 1.350 . S
C113 N121 1.427 . S
C114 H105 0.930 . S
C114 C112 1.378 . S
C114 C115 1.367 . S
C115 C114 1.367 . S
C115 C117 1.433 . S
C116 C112 1.350 . S
C116 C113 1.463 1_556 S
C116 N120 1.427 . S
C117 H107 0.929 . S
C117 C115 1.433 . S
C117 N120 1.384 . S
C118 H109 0.929 . S
C118 C110 1.378 . S
C118 C113 1.350 . S
C119 H106 0.929 . S
C119 C111 1.433 . S
C119 N121 1.384 . S
N120 C116 1.427 . S
N120 C117 1.384 . S
N121 C113 1.427 . S
N121 C119 1.384 . S
H122 C128 0.930 1_655 S
H123 C132 0.930 . S
H124 C137 0.929 . S
H125 C135 0.929 1_655 S
H126 C130 0.929 . S
H127 C136 0.929 1_655 S
C128 H122 0.930 1_455 S
C128 C129 1.367 . S
C128 C136 1.378 . S
C129 C128 1.367 . S
C129 C137 1.433 . S
C130 H126 0.929 . S
C130 C132 1.378 . S
C130 C134 1.350 . S
C131 C134 1.463 . S
C131 C136 1.350 . S
C131 N139 1.427 . S
C132 H123 0.930 . S
C132 C130 1.378 . S
C132 C133 1.367 . S
C133 C132 1.367 . S
C133 C135 1.433 . S
C134 C130 1.350 . S
C134 C131 1.463 . S
C134 N138 1.427 . S
C135 H125 0.929 1_455 S
C135 C133 1.433 . S
C135 N138 1.384 . S
C136 H127 0.929 1_455 S
C136 C128 1.378 . S
C136 C131 1.350 . S
C137 H124 0.929 . S
C137 C129 1.433 . S
C137 N139 1.384 . S
N138 C134 1.427 . S
N138 C135 1.384 . S
N139 C131 1.427 . S
N139 C137 1.384 . S
H140 C146 0.930 . S
H141 C150 0.930 1_565 S
H142 C155 0.929 1_565 S
H143 C153 0.929 . S
H144 C148 0.929 1_565 S
H145 C154 0.929 . S
C146 H140 0.930 . S
C146 C147 1.367 . S
C146 C154 1.378 . S
C147 C146 1.367 . S
C147 C155 1.433 . S
C148 H144 0.929 1_545 S
C148 C150 1.378 . S
C148 C152 1.350 . S
C149 C152 1.463 1_556 S
C149 C154 1.350 . S
C149 N157 1.427 . S
C150 H141 0.930 1_545 S
C150 C148 1.378 . S
C150 C151 1.367 . S
C151 C150 1.367 . S
C151 C153 1.433 . S
C152 C148 1.350 . S
C152 C149 1.463 1_554 S
C152 N156 1.427 . S
C153 H143 0.929 . S
C153 C151 1.433 . S
C153 N156 1.384 . S
C154 H145 0.929 . S
C154 C146 1.378 . S
C154 C149 1.350 . S
C155 H142 0.929 1_545 S
C155 C147 1.433 . S
C155 N157 1.384 . S
N156 C152 1.427 . S
N156 C153 1.384 . S
N157 C149 1.427 . S
N157 C155 1.384 . S
H158 C164 0.930 1_655 S
H159 C168 0.930 . S
H160 C173 0.929 . S
H161 C171 0.929 1_655 S
H162 C166 0.929 . S
H163 C172 0.929 1_655 S
C164 H158 0.930 1_455 S
C164 C165 1.367 . S
C164 C172 1.378 . S
C165 C164 1.367 . S
C165 C173 1.433 . S
C166 H162 0.929 . S
C166 C168 1.378 . S
C166 C170 1.350 . S
C167 C170 1.463 . S
C167 C172 1.350 . S
C167 N175 1.427 . S
C168 H159 0.930 . S
C168 C166 1.378 . S
C168 C169 1.367 . S
C169 C168 1.367 . S
C169 C171 1.433 . S
C170 C166 1.350 . S
C170 C167 1.463 . S
C170 N174 1.427 . S
C171 H161 0.929 1_455 S
C171 C169 1.433 . S
C171 N174 1.384 . S
C172 H163 0.929 1_455 S
C172 C164 1.378 . S
C172 C167 1.350 . S
C173 H160 0.929 . S
C173 C165 1.433 . S
C173 N175 1.384 . S
N174 C170 1.427 . S
N174 C171 1.384 . S
N175 C167 1.427 . S
N175 C173 1.384 . S
H176 C182 0.930 1_565 S
H177 C186 0.930 . S
H178 C191 0.929 . S
H179 C189 0.929 . S
H180 C184 0.929 . S
H181 C190 0.938 . S
C182 H176 0.930 1_545 S
C182 C183 1.367 . S
C182 C190 1.378 . S
C183 C182 1.367 . S
C183 C191 1.433 . S
C184 H180 0.929 . S
C184 C186 1.378 . S
C184 C188 1.350 . S
C185 C188 1.463 . S
C185 C190 1.350 . S
C185 N193 1.427 . S
C186 H177 0.930 . S
C186 C184 1.378 . S
C186 C187 1.367 . S
C187 C186 1.367 . S
C187 C189 1.433 . S
C188 C184 1.350 . S
C188 C185 1.463 . S
C188 N192 1.427 . S
C189 H179 0.929 . S
C189 C187 1.433 . S
C189 N192 1.384 . S
C190 H181 0.938 . S
C190 C182 1.378 . S
C190 C185 1.350 . S
C191 H178 0.929 . S
C191 C183 1.433 . S
C191 N193 1.384 . S
N192 C188 1.427 . S
N192 C189 1.384 . S
N193 C185 1.427 . S
N193 C191 1.384 . S
H194 C200 0.930 . S
H195 C204 0.930 . S
H196 C209 0.929 . S
H197 C207 0.914 1_655 S
H198 C202 0.929 . S
H199 C208 0.929 . S
C200 H194 0.930 . S
C200 C201 1.367 . S
C200 C208 1.378 . S
C201 C200 1.367 . S
C201 C209 1.433 . S
C202 H198 0.929 . S
C202 C204 1.378 . S
C202 C206 1.350 . S
C203 C206 1.463 . S
C203 C208 1.350 . S
C203 N211 1.427 . S
C204 H195 0.930 . S
C204 C202 1.378 . S
C204 C205 1.367 . S
C205 C204 1.367 . S
C205 C207 1.445 . S
C206 C202 1.350 . S
C206 C203 1.463 . S
C206 N210 1.427 . S
C207 H197 0.914 1_455 S
C207 C205 1.445 . S
C207 N210 1.388 . S
C208 H199 0.929 . S
C208 C200 1.378 . S
C208 C203 1.350 . S
C209 H196 0.929 . S
C209 C201 1.433 . S
C209 N211 1.384 . S
N210 C206 1.427 . S
N210 C207 1.388 . S
N211 C203 1.427 . S
N211 C209 1.384 . S
H212 C218 0.930 . S
H213 C222 0.930 . S
H214 C227 0.929 1_565 S
H215 C225 0.929 . S
H216 C220 0.929 . S
H217 C226 0.929 . S
C218 H212 0.930 . S
C218 C219 1.367 . S
C218 C226 1.378 . S
C219 C218 1.367 . S
C219 C227 1.433 . S
C220 H216 0.929 . S
C220 C222 1.378 . S
C220 C224 1.350 . S
C221 C224 1.463 . S
C221 C226 1.350 . S
C221 N229 1.427 . S
C222 H213 0.930 . S
C222 C220 1.378 . S
C222 C223 1.367 . S
C223 C222 1.367 . S
C223 C225 1.433 . S
C224 C220 1.350 . S
C224 C221 1.463 . S
C224 N228 1.427 . S
C225 H215 0.929 . S
C225 C223 1.433 . S
C225 N228 1.384 . S
C226 H217 0.929 . S
C226 C218 1.378 . S
C226 C221 1.350 . S
C227 H214 0.929 1_545 S
C227 C219 1.433 . S
C227 N229 1.384 . S
N228 C224 1.427 . S
N228 C225 1.384 . S
N229 C221 1.427 . S
N229 C227 1.384 . S
H230 C236 0.930 . S
H231 C240 0.930 . S
H232 C245 0.929 . S
H233 C243 0.929 . S
H234 C238 0.929 . S
H235 C244 0.929 1_655 S
C236 H230 0.930 . S
C236 C237 1.367 1_655 S
C236 C244 1.378 1_655 S
C237 C236 1.367 1_455 S
C237 C245 1.433 . S
C238 H234 0.929 . S
C238 C240 1.378 . S
C238 C242 1.350 . S
C239 C242 1.463 . S
C239 C244 1.350 . S
C239 N247 1.427 . S
C240 H231 0.930 . S
C240 C238 1.378 . S
C240 C241 1.367 . S
C241 C240 1.367 . S
C241 C243 1.433 . S
C242 C238 1.350 . S
C242 C239 1.463 . S
C242 N246 1.427 . S
C243 H233 0.929 . S
C243 C241 1.433 . S
C243 N246 1.384 . S
C244 H235 0.929 1_455 S
C244 C236 1.378 1_455 S
C244 C239 1.350 . S
C245 H232 0.929 . S
C245 C237 1.433 . S
C245 N247 1.384 . S
N246 C242 1.427 . S
N246 C243 1.384 . S
N247 C239 1.427 . S
N247 C245 1.384 . S
H248 C254 0.930 . S
H249 C258 0.930 . S
H250 C263 0.929 . S
H251 C261 0.929 . S
H252 C256 0.929 . S
H253 C262 0.929 . S
C254 H248 0.930 . S
C254 C255 1.367 . S
C254 C262 1.378 . S
C255 C254 1.367 . S
C255 C263 1.433 . S
C256 H252 0.929 . S
C256 C258 1.378 . S
C256 C260 1.350 . S
C257 C260 1.463 . S
C257 C262 1.350 . S
C257 N265 1.427 . S
C258 H249 0.930 . S
C258 C256 1.378 . S
C258 C259 1.367 . S
C259 C258 1.367 . S
C259 C261 1.433 . S
C260 C256 1.350 . S
C260 C257 1.463 . S
C260 N264 1.427 . S
C261 H251 0.929 . S
C261 C259 1.433 . S
C261 N264 1.384 . S
C262 H253 0.929 . S
C262 C254 1.378 . S
C262 C257 1.350 . S
C263 H250 0.929 . S
C263 C255 1.433 . S
C263 N265 1.384 . S
N264 C260 1.427 . S
N264 C261 1.384 . S
N265 C257 1.427 . S
N265 C263 1.384 . S
H266 C272 0.930 1_455 S
H267 C276 0.930 . S
H268 C281 0.929 . S
H269 C279 0.929 . S
H270 C274 0.929 . S
H271 C280 0.929 . S
C272 H266 0.930 1_655 S
C272 C273 1.367 . S
C272 C280 1.378 . S
C273 C272 1.367 . S
C273 C281 1.433 . S
C274 H270 0.929 . S
C274 C276 1.378 . S
C274 C278 1.350 . S
C275 C278 1.463 . S
C275 C280 1.350 . S
C275 N283 1.427 . S
C276 H267 0.930 . S
C276 C274 1.378 . S
C276 C277 1.367 . S
C277 C276 1.367 . S
C277 C279 1.433 . S
C278 C274 1.350 . S
C278 C275 1.463 . S
C278 N282 1.427 . S
C279 H269 0.929 . S
C279 C277 1.433 . S
C279 N282 1.384 . S
C280 H271 0.929 . S
C280 C272 1.378 . S
C280 C275 1.350 . S
C281 H268 0.929 . S
C281 C273 1.433 . S
C281 N283 1.384 . S
N282 C278 1.427 . S
N282 C279 1.384 . S
N283 C275 1.427 . S
N283 C281 1.384 . S
H284 C290 0.930 . S
H285 C294 0.930 . S
H286 C299 0.929 . S
H287 C297 0.929 1_545 S
H288 C292 0.929 . S
H289 C298 0.929 . S
C290 H284 0.930 . S
C290 C291 1.367 . S
C290 C298 1.378 . S
C291 C290 1.367 . S
C291 C299 1.433 . S
C292 H288 0.929 . S
C292 C294 1.378 . S
C292 C296 1.350 . S
C293 C296 1.463 . S
C293 C298 1.350 . S
C293 N301 1.427 . S
C294 H285 0.930 . S
C294 C292 1.378 . S
C294 C295 1.367 . S
C295 C294 1.367 . S
C295 C297 1.433 . S
C296 C292 1.350 . S
C296 C293 1.463 . S
C296 N300 1.427 . S
C297 H287 0.929 1_565 S
C297 C295 1.433 . S
C297 N300 1.384 . S
C298 H289 0.929 . S
C298 C290 1.378 . S
C298 C293 1.350 . S
C299 H286 0.929 . S
C299 C291 1.433 . S
C299 N301 1.384 . S
N300 C296 1.427 . S
N300 C297 1.384 . S
N301 C293 1.427 . S
N301 C299 1.384 . S
H302 C308 0.930 . S
H303 C312 0.930 . S
H304 C317 0.929 . S
H305 C315 0.929 1_545 S
H306 C310 0.929 . S
H307 C316 0.929 . S
C308 H302 0.930 . S
C308 C309 1.367 . S
C308 C316 1.378 . S
C309 C308 1.367 . S
C309 C317 1.433 . S
C310 H306 0.929 . S
C310 C312 1.378 . S
C310 C314 1.350 . S
C311 C314 1.463 . S
C311 C316 1.350 . S
C311 N319 1.427 . S
C312 H303 0.930 . S
C312 C310 1.378 . S
C312 C313 1.367 . S
C313 C312 1.367 . S
C313 C315 1.433 . S
C314 C310 1.350 . S
C314 C311 1.463 . S
C314 N318 1.427 . S
C315 H305 0.929 1_565 S
C315 C313 1.433 . S
C315 N318 1.384 . S
C316 H307 0.929 . S
C316 C308 1.378 . S
C316 C311 1.350 . S
C317 H304 0.929 . S
C317 C309 1.433 . S
C317 N319 1.384 . S
N318 C314 1.427 . S
N318 C315 1.384 . S
N319 C311 1.427 . S
N319 C317 1.384 . S
H320 C326 0.930 . S
H321 C330 0.930 . S
H322 C335 0.929 . S
H323 C333 0.929 . S
H324 C328 0.929 . S
H325 C334 0.929 . S
C326 H320 0.930 . S
C326 C327 1.367 . S
C326 C334 1.378 . S
C327 C326 1.367 . S
C327 C335 1.433 . S
C328 H324 0.929 . S
C328 C330 1.378 . S
C328 C332 1.350 . S
C329 C332 1.463 . S
C329 C334 1.350 . S
C329 N337 1.427 . S
C330 H321 0.930 . S
C330 C328 1.378 . S
C330 C331 1.367 . S
C331 C330 1.367 . S
C331 C333 1.433 . S
C332 C328 1.350 . S
C332 C329 1.463 . S
C332 N336 1.427 . S
C333 H323 0.929 . S
C333 C331 1.433 . S
C333 N336 1.384 . S
C334 H325 0.929 . S
C334 C326 1.378 . S
C334 C329 1.350 . S
C335 H322 0.929 . S
C335 C327 1.433 . S
C335 N337 1.384 . S
N336 C332 1.427 . S
N336 C333 1.384 . S
N337 C329 1.427 . S
N337 C335 1.384 . S
H338 C344 0.930 . S
H339 C348 0.930 . S
H340 C353 0.929 . S
H341 C351 0.929 . S
H342 C346 0.929 . S
H343 C352 0.929 . S
C344 H338 0.930 . S
C344 C345 1.367 . S
C344 C352 1.378 . S
C345 C344 1.367 . S
C345 C353 1.433 . S
C346 H342 0.929 . S
C346 C348 1.378 . S
C346 C350 1.350 . S
C347 C350 1.463 . S
C347 C352 1.350 . S
C347 N355 1.427 . S
C348 H339 0.930 . S
C348 C346 1.378 . S
C348 C349 1.367 . S
C349 C348 1.367 . S
C349 C351 1.433 . S
C350 C346 1.350 . S
C350 C347 1.463 . S
C350 N354 1.427 . S
C351 H341 0.929 . S
C351 C349 1.433 . S
C351 N354 1.384 . S
C352 H343 0.929 . S
C352 C344 1.378 . S
C352 C347 1.350 . S
C353 H340 0.929 . S
C353 C345 1.433 . S
C353 N355 1.384 . S
N354 C350 1.427 . S
N354 C351 1.384 . S
N355 C347 1.427 . S
N355 C353 1.384 . S
H356 C362 0.930 . S
H357 C366 0.930 . S
H358 C371 0.929 . S
H359 C369 0.929 . S
H360 C364 0.929 . S
H361 C370 0.929 . S
C362 H356 0.930 . S
C362 C363 1.367 . S
C362 C370 1.378 . S
C363 C362 1.367 . S
C363 C371 1.433 . S
C364 H360 0.929 . S
C364 C366 1.378 . S
C364 C368 1.350 . S
C365 C368 1.463 . S
C365 C370 1.350 . S
C365 N373 1.427 . S
C366 H357 0.930 . S
C366 C364 1.378 . S
C366 C367 1.367 . S
C367 C366 1.367 . S
C367 C369 1.433 . S
C368 C364 1.350 . S
C368 C365 1.463 . S
C368 N372 1.427 . S
C369 H359 0.929 . S
C369 C367 1.433 . S
C369 N372 1.384 . S
C370 H361 0.929 . S
C370 C362 1.378 . S
C370 C365 1.350 . S
C371 H358 0.929 . S
C371 C363 1.433 . S
C371 N373 1.384 . S
N372 C368 1.427 . S
N372 C369 1.384 . S
N373 C365 1.427 . S
N373 C371 1.384 . S
H374 C380 0.930 . S
H375 C384 0.930 . S
H376 C389 0.929 . S
H377 C387 0.929 . S
H378 C382 0.929 . S
H379 C388 0.929 . S
C380 H374 0.930 . S
C380 C381 1.367 . S
C380 C388 1.378 . S
C381 C380 1.367 . S
C381 C389 1.433 . S
C382 H378 0.929 . S
C382 C384 1.378 . S
C382 C386 1.350 . S
C383 C386 1.463 . S
C383 C388 1.350 . S
C383 N391 1.427 . S
C384 H375 0.930 . S
C384 C382 1.378 . S
C384 C385 1.367 . S
C385 C384 1.367 . S
C385 C387 1.433 . S
C386 C382 1.350 . S
C386 C383 1.463 . S
C386 N390 1.427 . S
C387 H377 0.929 . S
C387 C385 1.433 . S
C387 N390 1.384 . S
C388 H379 0.929 . S
C388 C380 1.378 . S
C388 C383 1.350 . S
C389 H376 0.929 . S
C389 C381 1.433 . S
C389 N391 1.384 . S
N390 C386 1.427 . S
N390 C387 1.384 . S
N391 C383 1.427 . S
N391 C389 1.384 . S
C111 C4 1.614 . S
C115 C62 1.613 . S
C129 C17 1.615 . S
C133 C69 1.615 . S
C147 C88 1.615 . S
C151 C30 1.615 . S
C165 C101 1.615 . S
C169 C49 1.615 . S
C183 C10 1.418 . S
C187 C36 1.416 . S
C201 C23 1.409 . S
C205 C43 1.411 . S
C219 C82 1.409 . S
C223 C56 1.411 . S
C237 C75 1.419 . S
C241 C95 1.418 . S
C255 C68 1.646 . S
C259 C3 1.647 . S
C273 C16 1.647 1_655 S
C277 C83 1.648 . S
C291 C96 1.648 1_655 S
C295 C29 1.649 1_565 S
C309 C44 1.649 . S
C313 C57 1.649 1_565 S
C327 C81 1.205 . S
C331 C42 1.202 . S
C345 C5 1.209 . S
C349 C94 1.212 . S
C363 C18 1.206 . S
C367 C55 1.202 . S
C381 C70 1.205 . S
C385 C31 1.212 . S
