# Generated by pormake.
# Topology dft, (4)-cn, num edge types: 1
# Building blocks:
#     Node 0, Type 0, BuildingBlock: NAHDIM_clean_sbu_0, # of connection points: 4
#     Node 1, Type 0, BuildingBlock: NAHDIM_clean_sbu_0, # of connection points: 4
#     Node 2, Type 0, BuildingBlock: NAHDIM_clean_sbu_0, # of connection points: 4
#     Node 3, Type 0, BuildingBlock: NAHDIM_clean_sbu_0, # of connection points: 4
#     Node 4, Type 0, BuildingBlock: NAHDIM_clean_sbu_0, # of connection points: 4
#     Node 5, Type 0, BuildingBlock: NAHDIM_clean_sbu_0, # of connection points: 4
#     Node 6, Type 0, BuildingBlock: NAHDIM_clean_sbu_0, # of connection points: 4
#     Node 7, Type 0, BuildingBlock: NAHDIM_clean_sbu_0, # of connection points: 4
#     Edge 8, Type (0, 0), BuildingBlock: EYOCIG_clean_linker_4, # of connection points: 2
#     Edge 9, Type (0, 0), BuildingBlock: EYOCIG_clean_linker_4, # of connection points: 2
#     Edge 10, Type (0, 0), BuildingBlock: EYOCIG_clean_linker_4, # of connection points: 2
#     Edge 11, Type (0, 0), BuildingBlock: EYOCIG_clean_linker_4, # of connection points: 2
#     Edge 12, Type (0, 0), BuildingBlock: EYOCIG_clean_linker_4, # of connection points: 2
#     Edge 13, Type (0, 0), BuildingBlock: EYOCIG_clean_linker_4, # of connection points: 2
#     Edge 14, Type (0, 0), BuildingBlock: EYOCIG_clean_linker_4, # of connection points: 2
#     Edge 15, Type (0, 0), BuildingBlock: EYOCIG_clean_linker_4, # of connection points: 2
#     Edge 16, Type (0, 0), BuildingBlock: EYOCIG_clean_linker_4, # of connection points: 2
#     Edge 17, Type (0, 0), BuildingBlock: EYOCIG_clean_linker_4, # of connection points: 2
#     Edge 18, Type (0, 0), BuildingBlock: EYOCIG_clean_linker_4, # of connection points: 2
#     Edge 19, Type (0, 0), BuildingBlock: EYOCIG_clean_linker_4, # of connection points: 2
#     Edge 20, Type (0, 0), BuildingBlock: EYOCIG_clean_linker_4, # of connection points: 2
#     Edge 21, Type (0, 0), BuildingBlock: EYOCIG_clean_linker_4, # of connection points: 2
#     Edge 22, Type (0, 0), BuildingBlock: EYOCIG_clean_linker_4, # of connection points: 2
#     Edge 23, Type (0, 0), BuildingBlock: EYOCIG_clean_linker_4, # of connection points: 2
# Relax obj value: 0.140
# Max RMSD: 0.138
# Mean RMSD: 0.138
data_MOF--net-dft--node1-NAHDIM_clean_sbu_0--edge1-EYOCIG_clean_linker_4
_symmetry_space_group_name_H-M    P1
_symmetry_Int_Tables_number       1
_symmetry_cell_setting            triclinic
loop_
_symmetry_equiv_pos_as_xyz
'x, y, z'
_cell_length_a     28.600535
_cell_length_b     28.548004
_cell_length_c     30.821839
_cell_angle_alpha  90.041969
_cell_angle_beta   90.024351
_cell_angle_gamma 89.990818
loop_
_atom_site_label
_atom_site_type_symbol
_atom_site_fract_x
_atom_site_fract_y
_atom_site_fract_z
_atom_type_partial_charge
C0 C 0.38783 0.02803 0.20814 0.0
O1 O 0.3747 0.07067 0.19796 0.0
O2 O 0.26382 0.06379 0.21848 0.0
Zn3 Zn 0.29115 0.00547 0.19058 0.0
O4 O 0.29005 0.01191 0.12515 0.0
C5 C 0.20882 0.95367 0.21379 0.0
O6 O 0.1885 -0.00602 0.20604 0.0
O7 O 0.35815 -0.00499 0.20843 0.0
C8 C 0.26575 -0.01405 0.10041 0.0
O9 O 0.23959 0.95264 0.11673 0.0
C10 C 0.23893 0.09195 0.19641 0.0
O11 O 0.23243 0.0845 0.15486 0.0
O12 O 0.25276 0.94953 0.20931 0.0
C13 C 0.97585 0.38878 0.71134 0.0
O14 O 0.93263 0.37508 0.70481 0.0
O15 O 0.94046 0.26515 0.71852 0.0
Zn16 Zn -0.00126 0.29239 0.6907 0.0
O17 O -0.0075 0.29099 0.62526 0.0
C18 C 0.05037 0.21003 0.71456 0.0
O19 O 0.01008 0.18967 0.70704 0.0
O20 O 0.00917 0.35961 0.70827 0.0
C21 C 0.01829 0.26628 0.60074 0.0
O22 O 0.05126 0.23986 0.61732 0.0
C23 C 0.91241 0.24014 0.69643 0.0
O24 O 0.91996 0.23344 0.65493 0.0
O25 O 0.05455 0.25399 0.70972 0.0
C26 C 0.61529 0.97755 0.20787 0.0
O27 O 0.6283 0.93505 0.19706 0.0
O28 O 0.73943 0.94174 0.21863 0.0
Zn29 Zn 0.71202 1e-05 0.19076 0.0
O30 O 0.71301 -0.00658 0.12533 0.0
C31 C 0.79445 0.05195 0.2135 0.0
O32 O 0.8148 0.01175 0.20531 0.0
O33 O 0.64507 0.01048 0.20869 0.0
C34 C 0.73655 0.0199 0.10049 0.0
O35 O 0.76191 0.05394 0.11668 0.0
C36 C 0.76439 0.91365 0.19653 0.0
O37 O 0.7709 0.92115 0.155 0.0
O38 O 0.75045 0.05598 0.20945 0.0
C39 C 0.02688 0.6165 0.71064 0.0
O40 O 0.07 0.6299 0.70309 0.0
O41 O 0.06263 0.74021 0.71813 0.0
Zn42 Zn 0.00425 0.71295 0.69042 0.0
O43 O 0.01042 0.71387 0.62497 0.0
C44 C 0.9529 0.79544 0.71475 0.0
O45 O -0.0066 0.81565 0.70794 0.0
O46 O -0.00631 0.64588 0.70832 0.0
C47 C -0.01436 0.73959 0.60046 0.0
O48 O 0.95387 0.76744 0.61705 0.0
C49 C 0.09067 0.76515 0.69601 0.0
O50 O 0.08305 0.77176 0.65451 0.0
O51 O 0.94851 0.75157 0.70928 0.0
C52 C 0.38774 0.97728 0.77761 0.0
O53 O 0.37448 0.9345 0.78709 0.0
O54 O 0.26386 0.94165 0.76755 0.0
Zn55 Zn 0.29114 -5e-05 0.79555 0.0
O56 O 0.28991 -0.00654 0.86097 0.0
C57 C 0.20874 0.05176 0.77259 0.0
O58 O 0.18846 0.01152 0.7807 0.0
O59 O 0.35817 0.01041 0.77788 0.0
C60 C 0.26605 0.01981 0.88571 0.0
O61 O 0.24048 0.05361 0.86941 0.0
C62 C 0.2391 0.91339 0.7896 0.0
O63 O 0.23271 0.92071 0.83118 0.0
O64 O 0.25272 0.05587 0.77676 0.0
C65 C 0.02723 0.38877 0.27426 0.0
O66 O 0.07056 0.37493 0.27985 0.0
O67 O 0.06258 0.26526 0.26809 0.0
Zn68 Zn 0.00431 0.29261 0.29594 0.0
O69 O 0.01058 0.29147 0.36138 0.0
C70 C 0.95272 0.21035 0.27145 0.0
O71 O -0.00679 0.19003 0.27812 0.0
O72 O -0.00612 0.35979 0.27828 0.0
C73 C -0.01406 0.26558 0.38583 0.0
O74 O 0.95428 0.23764 0.36917 0.0
C75 C 0.09064 0.24022 0.29013 0.0
O76 O 0.08311 0.23355 0.33163 0.0
O77 O 0.94843 0.25421 0.27705 0.0
C78 C 0.6152 0.02774 0.77846 0.0
O79 O 0.62815 0.07026 0.78927 0.0
O80 O 0.73925 0.06373 0.7677 0.0
Zn81 Zn 0.71199 0.00543 0.79558 0.0
O82 O 0.71313 0.012 0.86101 0.0
C83 C 0.79458 0.95366 0.77324 0.0
O84 O 0.81483 -0.00622 0.782 0.0
O85 O 0.64503 -0.00515 0.77766 0.0
C86 C 0.73608 -0.01499 0.88587 0.0
O87 O 0.76066 0.95039 0.86969 0.0
C88 C 0.76401 0.09198 0.78983 0.0
O89 O 0.77038 0.08464 0.83141 0.0
O90 O 0.75055 0.9496 0.77681 0.0
C91 C 0.97627 0.61652 0.27464 0.0
O92 O 0.93305 0.63014 0.28131 0.0
O93 O 0.94078 0.74019 0.26775 0.0
Zn94 Zn -0.00093 0.71286 0.29556 0.0
O95 O -0.00721 0.71397 0.36099 0.0
C96 C 0.05065 0.79525 0.27162 0.0
O97 O 0.01025 0.81558 0.27874 0.0
O98 O 0.00955 0.64572 0.27774 0.0
C99 C 0.01801 0.73921 0.38557 0.0
O100 O 0.05036 0.7664 0.36906 0.0
C101 C 0.9128 0.76528 0.28984 0.0
O102 O 0.92044 0.77199 0.33133 0.0
O103 O 0.0549 0.75133 0.27674 0.0
C104 C 0.26704 -0.00066 0.01571 0.0
C105 C 0.26657 -0.00664 0.05441 0.0
C106 C 0.2671 0.00632 0.9704 0.0
C107 C 0.26674 0.01233 0.93171 0.0
C108 C 0.00537 0.26725 0.51597 0.0
C109 C 0.01111 0.26694 0.5547 0.0
C110 C -0.00127 0.26711 0.47061 0.0
C111 C -0.00697 0.26655 0.43188 0.0
C112 C 0.73518 -0.00113 0.97053 0.0
C113 C 0.73549 -0.00733 0.93186 0.0
C114 C 0.73528 0.00609 0.01582 0.0
C115 C 0.73576 0.01228 0.0545 0.0
C116 C 0.00507 0.73792 0.47033 0.0
C117 C 0.01081 0.73835 0.4316 0.0
C118 C -0.00157 0.738 0.51568 0.0
C119 C -0.00725 0.73858 0.55441 0.0
C120 C 0.47752 0.00837 0.21762 0.0
C121 C 0.43661 0.01747 0.21328 0.0
C122 C 0.52564 -0.00275 0.21756 0.0
C123 C 0.56654 -0.01184 0.21313 0.0
C124 C -0.00444 0.47864 0.72056 0.0
C125 C -0.01383 0.43771 0.71634 0.0
C126 C 0.00701 0.52676 0.72041 0.0
C127 C 0.01641 0.56765 0.71593 0.0
C128 C 0.52559 0.00799 0.76858 0.0
C129 C 0.56648 0.01709 0.7731 0.0
C130 C 0.47746 -0.00313 0.7684 0.0
C131 C 0.43654 -0.01224 0.77262 0.0
C132 C 0.00754 0.4786 0.26491 0.0
C133 C 0.01697 0.43769 0.26918 0.0
C134 C -0.00395 0.52673 0.26499 0.0
C135 C -0.01336 0.56763 0.26941 0.0
C136 C 0.15696 0.19028 0.25254 0.0
C137 C 0.12641 0.21356 0.26873 0.0
C138 C 0.18893 0.15831 0.23399 0.0
C139 C 0.21223 0.12774 0.2178 0.0
C140 C 0.846 0.19028 0.7339 0.0
C141 C 0.87659 0.21353 0.71778 0.0
C142 C 0.81401 0.15833 0.75237 0.0
C143 C 0.79071 0.12776 0.76851 0.0
C144 C 0.84642 0.81526 0.2524 0.0
C145 C 0.877 0.79195 0.2685 0.0
C146 C 0.81442 0.84726 0.23396 0.0
C147 C 0.7911 0.87785 0.21785 0.0
C148 C 0.15711 0.81508 0.73346 0.0
C149 C 0.12651 0.79181 0.71733 0.0
C150 C 0.18911 0.84704 0.75199 0.0
C151 C 0.2124 0.87761 0.76818 0.0
C152 C 0.84885 0.88332 0.74996 0.0
C153 C 0.82263 0.91436 0.76045 0.0
C154 C 0.8825 0.84964 0.73781 0.0
C155 C 0.91353 0.82342 0.72734 0.0
C156 C 0.15476 0.8831 0.23672 0.0
C157 C 0.18092 0.91421 0.22634 0.0
C158 C 0.12112 0.84938 0.24873 0.0
C159 C 0.09007 0.82317 0.25911 0.0
C160 C 0.12085 0.15592 0.73758 0.0
C161 C 0.08978 0.18211 0.72716 0.0
C162 C 0.15454 0.12224 0.74962 0.0
C163 C 0.18077 0.09116 0.76 0.0
C164 C 0.88217 0.15626 0.24855 0.0
C165 C 0.91324 0.18246 0.25896 0.0
C166 C 0.84853 0.12253 0.23651 0.0
C167 C 0.82236 0.0914 0.22612 0.0
loop_
_geom_bond_atom_site_label_1
_geom_bond_atom_site_label_2
_geom_bond_distance
_geom_bond_site_symmetry_2
_ccdc_geom_bond_type
C0 O1 1.160 . S
C0 O7 1.185 . S
O1 C0 1.160 . S
O2 Zn3 1.899 . S
O2 C10 1.284 . S
Zn3 O2 1.899 . S
Zn3 O4 2.032 . S
Zn3 O7 2.086 . S
Zn3 O12 1.977 1_545 S
O4 Zn3 2.032 . S
O4 C8 1.278 . S
C5 O6 1.203 . S
C5 O12 1.267 . S
O6 C5 1.203 . S
O7 C0 1.185 . S
O7 Zn3 2.086 . S
C8 O4 1.278 . S
C8 O9 1.211 1_545 S
O9 C8 1.211 1_565 S
C10 O2 1.284 . S
C10 O11 1.273 . S
O11 C10 1.273 . S
O12 Zn3 1.977 1_565 S
O12 C5 1.267 . S
C13 O14 1.160 1_455 S
C13 O20 1.185 . S
O14 C13 1.160 1_655 S
O15 Zn16 1.899 1_655 S
O15 C23 1.284 . S
Zn16 O15 1.899 1_455 S
Zn16 O17 2.032 . S
Zn16 O20 2.086 . S
Zn16 O25 1.977 . S
O17 Zn16 2.032 . S
O17 C21 1.278 . S
C18 O19 1.203 . S
C18 O25 1.267 . S
O19 C18 1.203 . S
O20 C13 1.185 . S
O20 Zn16 2.086 . S
C21 O17 1.278 . S
C21 O22 1.211 . S
O22 C21 1.211 . S
C23 O15 1.284 . S
C23 O24 1.273 . S
O24 C23 1.273 . S
O25 Zn16 1.977 . S
O25 C18 1.267 . S
C26 O27 1.160 1_545 S
C26 O33 1.185 . S
O27 C26 1.160 1_565 S
O28 Zn29 1.899 1_565 S
O28 C36 1.284 . S
Zn29 O28 1.899 1_545 S
Zn29 O30 2.032 . S
Zn29 O33 2.086 . S
Zn29 O38 1.977 . S
O30 Zn29 2.032 . S
O30 C34 1.278 . S
C31 O32 1.203 . S
C31 O38 1.267 . S
O32 C31 1.203 . S
O33 C26 1.185 . S
O33 Zn29 2.086 . S
C34 O30 1.278 . S
C34 O35 1.211 . S
O35 C34 1.211 . S
C36 O28 1.284 . S
C36 O37 1.273 . S
O37 C36 1.273 . S
O38 Zn29 1.977 . S
O38 C31 1.267 . S
C39 O40 1.160 . S
C39 O46 1.185 . S
O40 C39 1.160 . S
O41 Zn42 1.899 . S
O41 C49 1.284 . S
Zn42 O41 1.899 . S
Zn42 O43 2.032 . S
Zn42 O46 2.086 . S
Zn42 O51 1.977 1_455 S
O43 Zn42 2.032 . S
O43 C47 1.278 . S
C44 O45 1.203 . S
C44 O51 1.267 . S
O45 C44 1.203 . S
O46 C39 1.185 . S
O46 Zn42 2.086 . S
C47 O43 1.278 . S
C47 O48 1.211 1_455 S
O48 C47 1.211 1_655 S
C49 O41 1.284 . S
C49 O50 1.273 . S
O50 C49 1.273 . S
O51 Zn42 1.977 1_655 S
O51 C44 1.267 . S
C52 O53 1.160 1_545 S
C52 O59 1.185 . S
O53 C52 1.160 1_565 S
O54 Zn55 1.899 1_565 S
O54 C62 1.284 . S
Zn55 O54 1.899 1_545 S
Zn55 O56 2.032 . S
Zn55 O59 2.086 . S
Zn55 O64 1.977 . S
O56 Zn55 2.032 . S
O56 C60 1.278 . S
C57 O58 1.203 . S
C57 O64 1.267 . S
O58 C57 1.203 . S
O59 C52 1.185 . S
O59 Zn55 2.086 . S
C60 O56 1.278 . S
C60 O61 1.211 . S
O61 C60 1.211 . S
C62 O54 1.284 . S
C62 O63 1.273 . S
O63 C62 1.273 . S
O64 Zn55 1.977 . S
O64 C57 1.267 . S
C65 O66 1.160 . S
C65 O72 1.185 . S
O66 C65 1.160 . S
O67 Zn68 1.899 . S
O67 C75 1.284 . S
Zn68 O67 1.899 . S
Zn68 O69 2.032 . S
Zn68 O72 2.086 . S
Zn68 O77 1.977 1_455 S
O69 Zn68 2.032 . S
O69 C73 1.278 . S
C70 O71 1.203 . S
C70 O77 1.267 . S
O71 C70 1.203 . S
O72 C65 1.185 . S
O72 Zn68 2.086 . S
C73 O69 1.278 . S
C73 O74 1.211 1_455 S
O74 C73 1.211 1_655 S
C75 O67 1.284 . S
C75 O76 1.273 . S
O76 C75 1.273 . S
O77 Zn68 1.977 1_655 S
O77 C70 1.267 . S
C78 O79 1.160 . S
C78 O85 1.185 . S
O79 C78 1.160 . S
O80 Zn81 1.899 . S
O80 C88 1.284 . S
Zn81 O80 1.899 . S
Zn81 O82 2.032 . S
Zn81 O85 2.086 . S
Zn81 O90 1.977 1_545 S
O82 Zn81 2.032 . S
O82 C86 1.278 . S
C83 O84 1.203 . S
C83 O90 1.267 . S
O84 C83 1.203 . S
O85 C78 1.185 . S
O85 Zn81 2.086 . S
C86 O82 1.278 . S
C86 O87 1.211 1_545 S
O87 C86 1.211 1_565 S
C88 O80 1.284 . S
C88 O89 1.273 . S
O89 C88 1.273 . S
O90 Zn81 1.977 1_565 S
O90 C83 1.267 . S
C91 O92 1.160 1_455 S
C91 O98 1.185 . S
O92 C91 1.160 1_655 S
O93 Zn94 1.899 1_655 S
O93 C101 1.284 . S
Zn94 O93 1.899 1_455 S
Zn94 O95 2.032 . S
Zn94 O98 2.086 . S
Zn94 O103 1.977 . S
O95 Zn94 2.032 . S
O95 C99 1.278 . S
C96 O97 1.203 . S
C96 O103 1.267 . S
O97 C96 1.203 . S
O98 C91 1.185 . S
O98 Zn94 2.086 . S
C99 O95 1.278 . S
C99 O100 1.211 . S
O100 C99 1.211 . S
C101 O93 1.284 . S
C101 O102 1.273 . S
O102 C101 1.273 . S
O103 Zn94 1.977 . S
O103 C96 1.267 . S
C104 C105 1.170 . S
C104 C106 1.380 1_554 S
C105 C104 1.170 . S
C106 C104 1.380 1_556 S
C106 C107 1.170 . S
C107 C106 1.170 . S
C108 C109 1.170 . S
C108 C110 1.380 . S
C109 C108 1.170 . S
C110 C108 1.380 . S
C110 C111 1.170 . S
C111 C110 1.170 . S
C112 C113 1.170 . S
C112 C114 1.380 1_556 S
C113 C112 1.170 . S
C114 C112 1.380 1_554 S
C114 C115 1.170 . S
C115 C114 1.170 . S
C116 C117 1.170 . S
C116 C118 1.380 . S
C117 C116 1.170 . S
C118 C116 1.380 . S
C118 C119 1.170 . S
C119 C118 1.170 . S
C120 C121 1.170 . S
C120 C122 1.380 . S
C121 C120 1.170 . S
C122 C120 1.380 . S
C122 C123 1.170 . S
C123 C122 1.170 . S
C124 C125 1.170 . S
C124 C126 1.380 . S
C125 C124 1.170 . S
C126 C124 1.380 . S
C126 C127 1.170 . S
C127 C126 1.170 . S
C128 C129 1.170 . S
C128 C130 1.380 . S
C129 C128 1.170 . S
C130 C128 1.380 . S
C130 C131 1.170 . S
C131 C130 1.170 . S
C132 C133 1.170 . S
C132 C134 1.380 . S
C133 C132 1.170 . S
C134 C132 1.380 . S
C134 C135 1.170 . S
C135 C134 1.170 . S
C136 C137 1.170 . S
C136 C138 1.380 . S
C137 C136 1.170 . S
C138 C136 1.380 . S
C138 C139 1.170 . S
C139 C138 1.170 . S
C140 C141 1.170 . S
C140 C142 1.380 . S
C141 C140 1.170 . S
C142 C140 1.380 . S
C142 C143 1.170 . S
C143 C142 1.170 . S
C144 C145 1.170 . S
C144 C146 1.380 . S
C145 C144 1.170 . S
C146 C144 1.380 . S
C146 C147 1.170 . S
C147 C146 1.170 . S
C148 C149 1.170 . S
C148 C150 1.380 . S
C149 C148 1.170 . S
C150 C148 1.380 . S
C150 C151 1.170 . S
C151 C150 1.170 . S
C152 C153 1.170 . S
C152 C154 1.380 . S
C153 C152 1.170 . S
C154 C152 1.380 . S
C154 C155 1.170 . S
C155 C154 1.170 . S
C156 C157 1.170 . S
C156 C158 1.380 . S
C157 C156 1.170 . S
C158 C156 1.380 . S
C158 C159 1.170 . S
C159 C158 1.170 . S
C160 C161 1.170 . S
C160 C162 1.380 . S
C161 C160 1.170 . S
C162 C160 1.380 . S
C162 C163 1.170 . S
C163 C162 1.170 . S
C164 C165 1.170 . S
C164 C166 1.380 . S
C165 C164 1.170 . S
C166 C164 1.380 . S
C166 C167 1.170 . S
C167 C166 1.170 . S
C105 C8 1.518 . S
C107 C60 1.502 . S
C109 C21 1.501 . S
C111 C73 1.520 . S
C113 C86 1.508 . S
C115 C34 1.526 . S
C117 C99 1.505 . S
C119 C47 1.513 . S
C121 C0 1.221 . S
C123 C26 1.221 . S
C125 C13 1.219 . S
C127 C39 1.233 . S
C129 C78 1.227 . S
C131 C52 1.217 . S
C133 C65 1.225 . S
C135 C91 1.230 . S
C137 C75 1.364 . S
C139 C10 1.326 . S
C141 C23 1.357 . S
C143 C88 1.338 . S
C145 C101 1.360 . S
C147 C36 1.325 . S
C149 C49 1.325 . S
C151 C62 1.364 . S
C153 C83 1.262 . S
C155 C44 1.261 . S
C157 C5 1.258 . S
C159 C96 1.256 . S
C161 C18 1.260 . S
C163 C57 1.262 . S
C165 C70 1.275 . S
C167 C31 1.276 . S
