# Generated by pormake.
# Topology dft, (4)-cn, num edge types: 1
# Building blocks:
#     Node 0, Type 0, BuildingBlock: QUQFOY_clean_sbu_1, # of connection points: 4
#     Node 1, Type 0, BuildingBlock: QUQFOY_clean_sbu_1, # of connection points: 4
#     Node 2, Type 0, BuildingBlock: QUQFOY_clean_sbu_1, # of connection points: 4
#     Node 3, Type 0, BuildingBlock: QUQFOY_clean_sbu_1, # of connection points: 4
#     Node 4, Type 0, BuildingBlock: QUQFOY_clean_sbu_1, # of connection points: 4
#     Node 5, Type 0, BuildingBlock: QUQFOY_clean_sbu_1, # of connection points: 4
#     Node 6, Type 0, BuildingBlock: QUQFOY_clean_sbu_1, # of connection points: 4
#     Node 7, Type 0, BuildingBlock: QUQFOY_clean_sbu_1, # of connection points: 4
#     Edge 8, Type (0, 0), BuildingBlock: EYOCIG_clean_linker_4, # of connection points: 2
#     Edge 9, Type (0, 0), BuildingBlock: EYOCIG_clean_linker_4, # of connection points: 2
#     Edge 10, Type (0, 0), BuildingBlock: EYOCIG_clean_linker_4, # of connection points: 2
#     Edge 11, Type (0, 0), BuildingBlock: EYOCIG_clean_linker_4, # of connection points: 2
#     Edge 12, Type (0, 0), BuildingBlock: EYOCIG_clean_linker_4, # of connection points: 2
#     Edge 13, Type (0, 0), BuildingBlock: EYOCIG_clean_linker_4, # of connection points: 2
#     Edge 14, Type (0, 0), BuildingBlock: EYOCIG_clean_linker_4, # of connection points: 2
#     Edge 15, Type (0, 0), BuildingBlock: EYOCIG_clean_linker_4, # of connection points: 2
#     Edge 16, Type (0, 0), BuildingBlock: EYOCIG_clean_linker_4, # of connection points: 2
#     Edge 17, Type (0, 0), BuildingBlock: EYOCIG_clean_linker_4, # of connection points: 2
#     Edge 18, Type (0, 0), BuildingBlock: EYOCIG_clean_linker_4, # of connection points: 2
#     Edge 19, Type (0, 0), BuildingBlock: EYOCIG_clean_linker_4, # of connection points: 2
#     Edge 20, Type (0, 0), BuildingBlock: EYOCIG_clean_linker_4, # of connection points: 2
#     Edge 21, Type (0, 0), BuildingBlock: EYOCIG_clean_linker_4, # of connection points: 2
#     Edge 22, Type (0, 0), BuildingBlock: EYOCIG_clean_linker_4, # of connection points: 2
#     Edge 23, Type (0, 0), BuildingBlock: EYOCIG_clean_linker_4, # of connection points: 2
# Relax obj value: 0.218
# Max RMSD: 0.227
# Mean RMSD: 0.227
data_MOF--net-dft--node1-QUQFOY_clean_sbu_1--edge1-EYOCIG_clean_linker_4
_symmetry_space_group_name_H-M    P1
_symmetry_Int_Tables_number       1
_symmetry_cell_setting            triclinic
loop_
_symmetry_equiv_pos_as_xyz
'x, y, z'
_cell_length_a     28.946489
_cell_length_b     28.960319
_cell_length_c     33.903499
_cell_angle_alpha  90.019491
_cell_angle_beta   90.023594
_cell_angle_gamma 90.001159
loop_
_atom_site_label
_atom_site_type_symbol
_atom_site_fract_x
_atom_site_fract_y
_atom_site_fract_z
_atom_type_partial_charge
O0 O 0.3403 0.06585 0.08263 0.0
Cd1 Cd 0.34692 0.07242 0.14307 0.0
Cd2 Cd 0.27294 0.0135 0.14292 0.0
O3 O 0.28656 1.01166 0.08321 0.0
O4 O 0.41142 0.09381 0.15174 0.0
O5 O 0.38557 0.02532 0.17136 0.0
C6 C 0.41931 0.05417 0.16762 0.0
C7 C 0.25495 0.94423 0.17386 0.0
C8 C 0.31455 0.03735 0.06459 0.0
C9 C 0.25968 0.10906 0.17718 0.0
O10 O 0.24127 0.07137 0.1663 0.0
O11 O 0.30256 0.11638 0.1725 0.0
O12 O 0.22601 0.9644 0.15082 0.0
O13 O 0.295 0.96278 0.17923 0.0
O14 O 0.9936 0.34098 0.58275 0.0
Cd15 Cd 0.98725 0.34709 0.64327 0.0
Cd16 Cd 0.0462 0.27296 0.64242 0.0
O17 O 0.04773 0.28717 0.5828 0.0
O18 O 0.96561 0.4114 0.65234 0.0
O19 O 0.03428 0.38571 0.67174 0.0
C20 C 1.00526 0.41934 0.66824 0.0
C21 C 0.11554 0.25448 0.67314 0.0
C22 C 0.02198 0.31536 0.56445 0.0
C23 C 0.95075 0.25952 0.67689 0.0
O24 O 0.98836 0.24119 0.66573 0.0
O25 O 0.94345 0.30244 0.67254 0.0
O26 O 0.09525 0.22585 0.64988 0.0
O27 O 0.09711 0.2945 0.67881 0.0
O28 O 0.71984 0.99302 0.0821 0.0
Cd29 Cd 0.71332 0.98629 0.14253 0.0
Cd30 Cd 0.78771 0.04516 0.14236 0.0
O31 O 0.77396 0.04685 0.08268 0.0
O32 O 0.64885 0.96486 0.15119 0.0
O33 O 0.67472 0.03327 0.17102 0.0
C34 C 0.64098 1.00442 0.16723 0.0
C35 C 0.80643 0.11451 0.17296 0.0
C36 C 0.74576 0.02134 0.06407 0.0
C37 C 0.80061 0.94946 0.17651 0.0
O38 O 0.81907 0.98717 0.16578 0.0
O39 O 0.75773 0.94218 0.17176 0.0
O40 O 0.83511 0.09393 0.14995 0.0
O41 O 0.76627 0.09631 0.17852 0.0
O42 O 0.06609 0.71909 0.5826 0.0
Cd43 Cd 0.07258 0.71303 0.64311 0.0
Cd44 Cd 0.01383 0.78736 0.64236 0.0
O45 O 1.01251 0.77345 0.5827 0.0
O46 O 0.094 0.64865 0.65217 0.0
O47 O 0.02549 0.67462 0.67166 0.0
C48 C 0.05437 0.64088 0.66814 0.0
C49 C 0.9442 0.80576 0.67258 0.0
C50 C 0.03798 0.74503 0.56433 0.0
C51 C 0.10933 0.80044 0.67697 0.0
O52 O 0.07165 0.81886 0.66605 0.0
O53 O 0.11662 0.75756 0.67231 0.0
O54 O 0.96482 0.83453 0.64969 0.0
O55 O 0.96255 0.7657 0.67825 0.0
O56 O 0.34056 0.99239 0.8494 0.0
Cd57 Cd 0.34699 0.98647 0.78888 0.0
Cd58 Cd 0.27267 0.04537 0.78974 0.0
O59 O 0.28658 0.04636 0.84941 0.0
O60 O 0.41145 0.9651 0.77994 0.0
O61 O 0.38563 0.0338 0.76087 0.0
C62 C 0.41935 1.00487 0.76433 0.0
C63 C 0.25407 0.11504 0.75965 0.0
C64 C 0.31473 0.02054 0.86774 0.0
C65 C 0.25958 0.95011 0.75471 0.0
O66 O 0.24116 0.98766 0.76589 0.0
O67 O 0.3025 0.94279 0.75925 0.0
O68 O 0.22538 0.09434 0.78257 0.0
O69 O 0.29418 0.0968 0.75393 0.0
O70 O 0.06737 0.34094 0.34929 0.0
Cd71 Cd 0.07375 0.34691 0.28875 0.0
Cd72 Cd 0.01477 0.2727 0.28967 0.0
O73 O 1.01336 0.28699 0.34928 0.0
O74 O 0.09538 0.4112 0.27962 0.0
O75 O 0.02672 0.38545 0.26023 0.0
C76 C 0.05574 0.41909 0.26369 0.0
C77 C 0.94532 0.25394 0.25924 0.0
C78 C 0.03905 0.31527 0.36761 0.0
C79 C 0.11019 0.25932 0.25507 0.0
O80 O 0.07257 0.24099 0.26621 0.0
O81 O 0.11754 0.30222 0.2595 0.0
O82 O 0.96583 0.22542 0.28244 0.0
O83 O 0.96361 0.294 0.25345 0.0
O84 O 0.72006 0.06711 0.84912 0.0
Cd85 Cd 0.71344 0.07329 0.78865 0.0
Cd86 Cd 0.78733 0.01423 0.78905 0.0
O87 O 0.77372 1.01284 0.84876 0.0
O88 O 0.64898 0.0947 0.77987 0.0
O89 O 0.67473 0.02605 0.76055 0.0
C90 C 0.64103 0.05497 0.76416 0.0
C91 C 0.80525 0.94471 0.75846 0.0
C92 C 0.74578 0.0387 0.86727 0.0
C93 C 0.80079 0.10957 0.75446 0.0
O94 O 0.81911 0.07191 0.76548 0.0
O95 O 0.75791 0.11699 0.75908 0.0
O96 O 0.83421 0.96502 0.78141 0.0
O97 O 0.76524 0.96327 0.75297 0.0
O98 O 0.99333 0.7187 0.34901 0.0
Cd99 Cd 0.98748 0.71259 0.28845 0.0
Cd100 Cd 0.04587 0.78716 0.28964 0.0
O101 O 0.04664 0.77333 0.34931 0.0
O102 O 0.96636 0.64814 0.27922 0.0
O103 O 0.03498 0.67433 0.26021 0.0
C104 C 1.00616 0.6405 0.26352 0.0
C105 C 0.1157 0.80563 0.25983 0.0
C106 C 0.02113 0.7448 0.36749 0.0
C107 C 0.95069 0.79982 0.25433 0.0
O108 O 0.98817 0.81842 0.26554 0.0
O109 O 0.94355 0.75691 0.25893 0.0
O110 O 0.09485 0.83442 0.28256 0.0
O111 O 0.09749 0.76552 0.2541 0.0
C112 C 0.31825 0.03062 -0.01305 0.0
C113 C 0.31695 0.03409 0.02238 0.0
C114 C 0.31836 0.02648 0.94543 0.0
C115 C 0.31721 0.02327 0.90997 0.0
C116 C 0.02838 0.31943 0.48679 0.0
C117 C 0.02497 0.31805 0.52223 0.0
C118 C 0.03263 0.31942 0.44527 0.0
C119 C 0.03606 0.31803 0.40983 0.0
C120 C 0.74218 0.03234 0.94493 0.0
C121 C 0.74338 0.03569 0.90949 0.0
C122 C 0.74218 0.02808 -0.01357 0.0
C123 C 0.74338 0.02457 0.02186 0.0
C124 C 0.02714 0.74091 0.44517 0.0
C125 C 0.02387 0.74214 0.40972 0.0
C126 C 0.03139 0.74099 0.48669 0.0
C127 C 0.03487 0.74235 0.52212 0.0
C128 C 0.50615 0.03345 0.18315 0.0
C129 C 0.46588 0.04095 0.17674 0.0
C130 C 0.55419 0.02502 0.18307 0.0
C131 C 0.59444 0.01756 0.17652 0.0
C132 C 0.0256 0.50613 0.68421 0.0
C133 C 0.0183 0.46588 0.67761 0.0
C134 C 0.03384 0.55418 0.68419 0.0
C135 C 0.0412 0.59441 0.67757 0.0
C136 C 0.55417 0.0342 0.74866 0.0
C137 C 0.59444 0.04175 0.75508 0.0
C138 C 0.50614 0.02568 0.7487 0.0
C139 C 0.4659 0.01812 0.75518 0.0
C140 C 0.03537 0.50582 0.24758 0.0
C141 C 0.04269 0.4656 0.25425 0.0
C142 C 0.02705 0.55386 0.24754 0.0
C143 C 0.01955 0.59407 0.25414 0.0
C144 C 0.17345 0.20455 0.2241 0.0
C145 C 0.1453 0.23048 0.23812 0.0
C146 C 0.20519 0.1726 0.20811 0.0
C147 C 0.23097 0.14429 0.1941 0.0
C148 C 0.88735 0.20479 0.70766 0.0
C149 C 0.91558 0.23069 0.69374 0.0
C150 C 0.85549 0.17292 0.72357 0.0
C151 C 0.82961 0.14471 0.73756 0.0
C152 C 0.88712 0.85407 0.22316 0.0
C153 C 0.91542 0.82837 0.23727 0.0
C154 C 0.85519 0.88586 0.20722 0.0
C155 C 0.82931 0.91414 0.19332 0.0
C156 C 0.17295 0.85496 0.70779 0.0
C157 C 0.14462 0.82915 0.69383 0.0
C158 C 0.2049 0.88676 0.72371 0.0
C159 C 0.23081 0.91495 0.73774 0.0
C160 C 0.83873 0.8711 0.72352 0.0
C161 C 0.81934 0.90393 0.73773 0.0
C162 C 0.87039 0.83949 0.70708 0.0
C163 C 0.90331 0.82008 0.69304 0.0
C164 C 0.2214 0.87089 0.20912 0.0
C165 C 0.24083 0.9036 0.19477 0.0
C166 C 0.18968 0.83938 0.2256 0.0
C167 C 0.1567 0.82 0.23955 0.0
C168 C 0.18873 0.22043 0.70843 0.0
C169 C 0.15607 0.23998 0.69406 0.0
C170 C 0.22018 0.18873 0.72505 0.0
C171 C 0.23959 0.15585 0.73917 0.0
C172 C 0.87195 0.21969 0.22434 0.0
C173 C 0.90468 0.2393 0.23855 0.0
C174 C 0.84041 0.18801 0.20781 0.0
C175 C 0.82092 0.15522 0.1936 0.0
loop_
_geom_bond_atom_site_label_1
_geom_bond_atom_site_label_2
_geom_bond_distance
_geom_bond_site_symmetry_2
_ccdc_geom_bond_type
O0 Cd1 2.223 . S
O0 C8 1.315 . S
Cd1 O0 2.223 . S
Cd1 O4 2.297 . S
Cd1 O5 2.439 1_545 S
Cd1 O11 2.240 . S
Cd2 O3 2.240 1_565 S
Cd2 O10 2.223 1_565 S
Cd2 O12 2.297 . S
Cd2 O13 2.439 . S
O3 Cd2 2.240 1_545 S
O3 C8 1.279 . S
O4 Cd1 2.297 . S
O4 C6 1.247 . S
O5 Cd1 2.439 1_565 S
O5 C6 1.208 1_565 S
C6 O4 1.247 . S
C6 O5 1.208 1_545 S
C7 O12 1.247 . S
C7 O13 1.208 . S
C8 O0 1.315 . S
C8 O3 1.279 . S
C9 O10 1.315 . S
C9 O11 1.279 . S
O10 Cd2 2.223 1_545 S
O10 C9 1.315 . S
O11 Cd1 2.240 . S
O11 C9 1.279 . S
O12 Cd2 2.297 . S
O12 C7 1.247 . S
O13 Cd2 2.439 . S
O13 C7 1.208 . S
O14 Cd15 2.223 . S
O14 C22 1.315 . S
Cd15 O14 2.223 . S
Cd15 O18 2.297 . S
Cd15 O19 2.439 1_655 S
Cd15 O25 2.240 . S
Cd16 O17 2.240 . S
Cd16 O24 2.223 1_455 S
Cd16 O26 2.297 . S
Cd16 O27 2.439 . S
O17 Cd16 2.240 . S
O17 C22 1.279 1_455 S
O18 Cd15 2.297 . S
O18 C20 1.247 1_655 S
O19 Cd15 2.439 1_455 S
O19 C20 1.208 . S
C20 O18 1.247 1_455 S
C20 O19 1.208 . S
C21 O26 1.247 . S
C21 O27 1.208 . S
C22 O14 1.315 . S
C22 O17 1.279 1_655 S
C23 O24 1.315 . S
C23 O25 1.279 . S
O24 Cd16 2.223 1_655 S
O24 C23 1.315 . S
O25 Cd15 2.240 . S
O25 C23 1.279 . S
O26 Cd16 2.297 . S
O26 C21 1.247 . S
O27 Cd16 2.439 . S
O27 C21 1.208 . S
O28 Cd29 2.223 . S
O28 C36 1.315 . S
Cd29 O28 2.223 . S
Cd29 O32 2.297 . S
Cd29 O33 2.439 1_565 S
Cd29 O39 2.240 . S
Cd30 O31 2.240 . S
Cd30 O38 2.223 1_545 S
Cd30 O40 2.297 . S
Cd30 O41 2.439 . S
O31 Cd30 2.240 . S
O31 C36 1.279 1_545 S
O32 Cd29 2.297 . S
O32 C34 1.247 1_565 S
O33 Cd29 2.439 1_545 S
O33 C34 1.208 . S
C34 O32 1.247 1_545 S
C34 O33 1.208 . S
C35 O40 1.247 . S
C35 O41 1.208 . S
C36 O28 1.315 . S
C36 O31 1.279 1_565 S
C37 O38 1.315 . S
C37 O39 1.279 . S
O38 Cd30 2.223 1_565 S
O38 C37 1.315 . S
O39 Cd29 2.240 . S
O39 C37 1.279 . S
O40 Cd30 2.297 . S
O40 C35 1.247 . S
O41 Cd30 2.439 . S
O41 C35 1.208 . S
O42 Cd43 2.223 . S
O42 C50 1.315 . S
Cd43 O42 2.223 . S
Cd43 O46 2.297 . S
Cd43 O47 2.439 1_455 S
Cd43 O53 2.240 . S
Cd44 O45 2.240 1_655 S
Cd44 O52 2.223 1_655 S
Cd44 O54 2.297 . S
Cd44 O55 2.439 . S
O45 Cd44 2.240 1_455 S
O45 C50 1.279 . S
O46 Cd43 2.297 . S
O46 C48 1.247 . S
O47 Cd43 2.439 1_655 S
O47 C48 1.208 1_655 S
C48 O46 1.247 . S
C48 O47 1.208 1_455 S
C49 O54 1.247 . S
C49 O55 1.208 . S
C50 O42 1.315 . S
C50 O45 1.279 . S
C51 O52 1.315 . S
C51 O53 1.279 . S
O52 Cd44 2.223 1_455 S
O52 C51 1.315 . S
O53 Cd43 2.240 . S
O53 C51 1.279 . S
O54 Cd44 2.297 . S
O54 C49 1.247 . S
O55 Cd44 2.439 . S
O55 C49 1.208 . S
O56 Cd57 2.223 . S
O56 C64 1.315 . S
Cd57 O56 2.223 . S
Cd57 O60 2.297 . S
Cd57 O61 2.439 1_565 S
Cd57 O67 2.240 . S
Cd58 O59 2.240 . S
Cd58 O66 2.223 1_545 S
Cd58 O68 2.297 . S
Cd58 O69 2.439 . S
O59 Cd58 2.240 . S
O59 C64 1.279 1_545 S
O60 Cd57 2.297 . S
O60 C62 1.247 1_565 S
O61 Cd57 2.439 1_545 S
O61 C62 1.208 . S
C62 O60 1.247 1_545 S
C62 O61 1.208 . S
C63 O68 1.247 . S
C63 O69 1.208 . S
C64 O56 1.315 . S
C64 O59 1.279 1_565 S
C65 O66 1.315 . S
C65 O67 1.279 . S
O66 Cd58 2.223 1_565 S
O66 C65 1.315 . S
O67 Cd57 2.240 . S
O67 C65 1.279 . S
O68 Cd58 2.297 . S
O68 C63 1.247 . S
O69 Cd58 2.439 . S
O69 C63 1.208 . S
O70 Cd71 2.223 . S
O70 C78 1.315 . S
Cd71 O70 2.223 . S
Cd71 O74 2.297 . S
Cd71 O75 2.439 1_455 S
Cd71 O81 2.240 . S
Cd72 O73 2.240 1_655 S
Cd72 O80 2.223 1_655 S
Cd72 O82 2.297 . S
Cd72 O83 2.439 . S
O73 Cd72 2.240 1_455 S
O73 C78 1.279 . S
O74 Cd71 2.297 . S
O74 C76 1.247 . S
O75 Cd71 2.439 1_655 S
O75 C76 1.208 1_655 S
C76 O74 1.247 . S
C76 O75 1.208 1_455 S
C77 O82 1.247 . S
C77 O83 1.208 . S
C78 O70 1.315 . S
C78 O73 1.279 . S
C79 O80 1.315 . S
C79 O81 1.279 . S
O80 Cd72 2.223 1_455 S
O80 C79 1.315 . S
O81 Cd71 2.240 . S
O81 C79 1.279 . S
O82 Cd72 2.297 . S
O82 C77 1.247 . S
O83 Cd72 2.439 . S
O83 C77 1.208 . S
O84 Cd85 2.223 . S
O84 C92 1.315 . S
Cd85 O84 2.223 . S
Cd85 O88 2.297 . S
Cd85 O89 2.439 1_545 S
Cd85 O95 2.240 . S
Cd86 O87 2.240 1_565 S
Cd86 O94 2.223 1_565 S
Cd86 O96 2.297 . S
Cd86 O97 2.439 . S
O87 Cd86 2.240 1_545 S
O87 C92 1.279 . S
O88 Cd85 2.297 . S
O88 C90 1.247 . S
O89 Cd85 2.439 1_565 S
O89 C90 1.208 1_565 S
C90 O88 1.247 . S
C90 O89 1.208 1_545 S
C91 O96 1.247 . S
C91 O97 1.208 . S
C92 O84 1.315 . S
C92 O87 1.279 . S
C93 O94 1.315 . S
C93 O95 1.279 . S
O94 Cd86 2.223 1_545 S
O94 C93 1.315 . S
O95 Cd85 2.240 . S
O95 C93 1.279 . S
O96 Cd86 2.297 . S
O96 C91 1.247 . S
O97 Cd86 2.439 . S
O97 C91 1.208 . S
O98 Cd99 2.223 . S
O98 C106 1.315 . S
Cd99 O98 2.223 . S
Cd99 O102 2.297 . S
Cd99 O103 2.439 1_655 S
Cd99 O109 2.240 . S
Cd100 O101 2.240 . S
Cd100 O108 2.223 1_455 S
Cd100 O110 2.297 . S
Cd100 O111 2.439 . S
O101 Cd100 2.240 . S
O101 C106 1.279 1_455 S
O102 Cd99 2.297 . S
O102 C104 1.247 1_655 S
O103 Cd99 2.439 1_455 S
O103 C104 1.208 . S
C104 O102 1.247 1_455 S
C104 O103 1.208 . S
C105 O110 1.247 . S
C105 O111 1.208 . S
C106 O98 1.315 . S
C106 O101 1.279 1_655 S
C107 O108 1.315 . S
C107 O109 1.279 . S
O108 Cd100 2.223 1_655 S
O108 C107 1.315 . S
O109 Cd99 2.240 . S
O109 C107 1.279 . S
O110 Cd100 2.297 . S
O110 C105 1.247 . S
O111 Cd100 2.439 . S
O111 C105 1.208 . S
C112 C113 1.170 . S
C112 C114 1.380 1_554 S
C113 C112 1.170 . S
C114 C112 1.380 1_556 S
C114 C115 1.170 1_545 S
C115 C114 1.170 1_565 S
C116 C117 1.170 1_455 S
C116 C118 1.380 . S
C117 C116 1.170 1_655 S
C118 C116 1.380 . S
C118 C119 1.170 . S
C119 C118 1.170 . S
C120 C121 1.170 . S
C120 C122 1.380 1_556 S
C121 C120 1.170 . S
C122 C120 1.380 1_554 S
C122 C123 1.168 1_545 S
C123 C122 1.168 1_565 S
C124 C125 1.170 1_455 S
C124 C126 1.380 . S
C125 C124 1.170 1_655 S
C126 C124 1.380 . S
C126 C127 1.170 . S
C127 C126 1.170 . S
C128 C129 1.170 . S
C128 C130 1.380 . S
C129 C128 1.170 . S
C130 C128 1.380 . S
C130 C131 1.170 . S
C131 C130 1.170 . S
C132 C133 1.170 . S
C132 C134 1.380 . S
C133 C132 1.170 . S
C134 C132 1.380 . S
C134 C135 1.170 . S
C135 C134 1.170 . S
C136 C137 1.170 . S
C136 C138 1.380 . S
C137 C136 1.170 . S
C138 C136 1.380 . S
C138 C139 1.170 . S
C139 C138 1.170 . S
C140 C141 1.170 . S
C140 C142 1.380 . S
C141 C140 1.170 . S
C142 C140 1.380 . S
C142 C143 1.170 . S
C143 C142 1.170 . S
C144 C145 1.170 . S
C144 C146 1.380 . S
C145 C144 1.170 . S
C146 C144 1.380 . S
C146 C147 1.170 . S
C147 C146 1.170 . S
C148 C149 1.170 . S
C148 C150 1.380 . S
C149 C148 1.170 . S
C150 C148 1.380 . S
C150 C151 1.170 . S
C151 C150 1.170 . S
C152 C153 1.170 . S
C152 C154 1.380 . S
C153 C152 1.170 . S
C154 C152 1.380 . S
C154 C155 1.170 . S
C155 C154 1.170 . S
C156 C157 1.170 . S
C156 C158 1.380 . S
C157 C156 1.170 . S
C158 C156 1.380 . S
C158 C159 1.170 . S
C159 C158 1.170 . S
C160 C161 1.170 . S
C160 C162 1.380 . S
C161 C160 1.170 . S
C162 C160 1.380 . S
C162 C163 1.170 . S
C163 C162 1.170 . S
C164 C165 1.170 . S
C164 C166 1.380 . S
C165 C164 1.170 . S
C166 C164 1.380 . S
C166 C167 1.170 . S
C167 C166 1.170 . S
C168 C169 1.170 . S
C168 C170 1.380 . S
C169 C168 1.170 . S
C170 C168 1.380 . S
C170 C171 1.170 . S
C171 C170 1.170 . S
C172 C173 1.170 . S
C172 C174 1.380 . S
C173 C172 1.170 . S
C174 C172 1.380 . S
C174 C175 1.170 . S
C175 C174 1.170 . S
C113 C8 1.760 . S
C115 C64 1.775 . S
C117 C22 1.759 . S
C119 C78 1.752 . S
C121 C92 1.778 . S
C123 C36 1.768 . S
C125 C106 1.770 . S
C127 C50 1.755 . S
C129 C6 1.321 . S
C131 C34 1.288 . S
C133 C20 1.303 . S
C135 C48 1.338 . S
C137 C90 1.304 . S
C139 C62 1.300 . S
C141 C76 1.302 . S
C143 C104 1.338 . S
C145 C79 1.984 . S
C147 C9 1.988 . S
C149 C23 1.987 . S
C151 C93 1.995 . S
C153 C107 1.997 . S
C155 C37 2.005 . S
C157 C51 1.988 . S
C159 C65 1.995 . S
C161 C91 1.107 . S
C163 C49 1.049 . S
C165 C7 1.107 . S
C167 C105 1.046 . S
C169 C21 1.099 . S
C171 C63 1.024 . S
C173 C77 1.040 . S
C175 C35 1.027 . S
