# Generated by pormake.
# Topology dft, (4)-cn, num edge types: 1
# Building blocks:
#     Node 0, Type 0, BuildingBlock: QUQFOY_clean_sbu_1, # of connection points: 4
#     Node 1, Type 0, BuildingBlock: QUQFOY_clean_sbu_1, # of connection points: 4
#     Node 2, Type 0, BuildingBlock: QUQFOY_clean_sbu_1, # of connection points: 4
#     Node 3, Type 0, BuildingBlock: QUQFOY_clean_sbu_1, # of connection points: 4
#     Node 4, Type 0, BuildingBlock: QUQFOY_clean_sbu_1, # of connection points: 4
#     Node 5, Type 0, BuildingBlock: QUQFOY_clean_sbu_1, # of connection points: 4
#     Node 6, Type 0, BuildingBlock: QUQFOY_clean_sbu_1, # of connection points: 4
#     Node 7, Type 0, BuildingBlock: QUQFOY_clean_sbu_1, # of connection points: 4
#     Edge 8, Type (0, 0), BuildingBlock: XIVTED_clean_linker_0, # of connection points: 2
#     Edge 9, Type (0, 0), BuildingBlock: XIVTED_clean_linker_0, # of connection points: 2
#     Edge 10, Type (0, 0), BuildingBlock: XIVTED_clean_linker_0, # of connection points: 2
#     Edge 11, Type (0, 0), BuildingBlock: XIVTED_clean_linker_0, # of connection points: 2
#     Edge 12, Type (0, 0), BuildingBlock: XIVTED_clean_linker_0, # of connection points: 2
#     Edge 13, Type (0, 0), BuildingBlock: XIVTED_clean_linker_0, # of connection points: 2
#     Edge 14, Type (0, 0), BuildingBlock: XIVTED_clean_linker_0, # of connection points: 2
#     Edge 15, Type (0, 0), BuildingBlock: XIVTED_clean_linker_0, # of connection points: 2
#     Edge 16, Type (0, 0), BuildingBlock: XIVTED_clean_linker_0, # of connection points: 2
#     Edge 17, Type (0, 0), BuildingBlock: XIVTED_clean_linker_0, # of connection points: 2
#     Edge 18, Type (0, 0), BuildingBlock: XIVTED_clean_linker_0, # of connection points: 2
#     Edge 19, Type (0, 0), BuildingBlock: XIVTED_clean_linker_0, # of connection points: 2
#     Edge 20, Type (0, 0), BuildingBlock: XIVTED_clean_linker_0, # of connection points: 2
#     Edge 21, Type (0, 0), BuildingBlock: XIVTED_clean_linker_0, # of connection points: 2
#     Edge 22, Type (0, 0), BuildingBlock: XIVTED_clean_linker_0, # of connection points: 2
#     Edge 23, Type (0, 0), BuildingBlock: XIVTED_clean_linker_0, # of connection points: 2
# Relax obj value: 0.211
# Max RMSD: 0.224
# Mean RMSD: 0.224
data_MOF--net-dft--node1-QUQFOY_clean_sbu_1--edge1-XIVTED_clean_linker_0
_symmetry_space_group_name_H-M    P1
_symmetry_Int_Tables_number       1
_symmetry_cell_setting            triclinic
loop_
_symmetry_equiv_pos_as_xyz
'x, y, z'
_cell_length_a     37.026232
_cell_length_b     36.983822
_cell_length_c     40.247858
_cell_angle_alpha  89.991349
_cell_angle_beta   89.98692
_cell_angle_gamma 89.994033
loop_
_atom_site_label
_atom_site_type_symbol
_atom_site_fract_x
_atom_site_fract_y
_atom_site_fract_z
_atom_type_partial_charge
O0 O 0.35478 0.07098 0.13567 0.0
Cd1 Cd 0.35187 0.07474 0.18659 0.0
Cd2 Cd 0.30011 0.02183 0.18054 0.0
O3 O 0.32229 0.02111 0.13352 0.0
O4 O 0.39879 0.09449 0.20202 0.0
O5 O 0.38023 0.03874 0.21304 0.0
C6 C 0.40512 0.0632 0.215 0.0
C7 C 0.2805 0.96563 0.20002 0.0
C8 C 0.34211 0.0445 0.11935 0.0
C9 C 0.27779 0.09587 0.20652 0.0
O10 O 0.26826 0.06498 0.19573 0.0
O11 O 0.31089 0.10485 0.20682 0.0
O12 O 0.26434 0.98207 0.17612 0.0
O13 O 0.30837 0.98098 0.21313 0.0
O14 O 0.99961 0.3487 0.63645 0.0
Cd15 Cd 0.99591 0.34715 0.68742 0.0
Cd16 Cd 0.04761 0.29271 0.68126 0.0
O17 O 0.04839 0.31459 0.63408 0.0
O18 O 0.97454 0.39412 0.70102 0.0
O19 O 0.03055 0.3778 0.71338 0.0
C20 C 0.00531 0.40196 0.71421 0.0
C21 C 0.10322 0.27048 0.69984 0.0
C22 C 0.02542 0.33496 0.61999 0.0
C23 C 0.97313 0.27356 0.70832 0.0
O24 O 0.00345 0.26278 0.69723 0.0
O25 O 0.96534 0.307 0.70847 0.0
O26 O 0.08553 0.255 0.67632 0.0
O27 O 0.08949 0.29916 0.71306 0.0
O28 O 0.71057 0.99827 0.1344 0.0
Cd29 Cd 0.71409 0.99333 0.18521 0.0
Cd30 Cd 0.76666 0.04552 0.17895 0.0
O31 O 0.74326 0.04803 0.13249 0.0
O32 O 0.66716 0.97355 0.20059 0.0
O33 O 0.68622 0.02885 0.21268 0.0
C34 C 0.66115 0.00454 0.21427 0.0
C35 C 0.78844 0.10058 0.19936 0.0
C36 C 0.72304 0.02501 0.11829 0.0
C37 C 0.78809 0.97025 0.20279 0.0
O38 O 0.79782 0.00112 0.19209 0.0
O39 O 0.75484 0.96199 0.20421 0.0
O40 O 0.80345 0.08442 0.17468 0.0
O41 O 0.76045 0.08563 0.21269 0.0
O42 O 0.05848 0.71581 0.6348 0.0
Cd43 Cd 0.06493 0.71639 0.68572 0.0
Cd44 Cd 0.01575 0.77419 0.6827 0.0
O45 O 0.01872 0.76023 0.63341 0.0
O46 O 0.08638 0.66884 0.69743 0.0
O47 O 0.03142 0.68558 0.71286 0.0
C48 C 0.0564 0.66115 0.71215 0.0
C49 C 0.9591 0.79504 0.69986 0.0
C50 C 0.03753 0.7365 0.61861 0.0
C51 C 0.09006 0.7885 0.71129 0.0
O52 O 0.05912 0.80069 0.70349 0.0
O53 O 0.0978 0.75539 0.70662 0.0
O54 O 0.97895 0.81315 0.67963 0.0
O55 O 0.97132 0.76459 0.71078 0.0
O56 O 0.35376 0.99392 0.8573 0.0
Cd57 Cd 0.35029 0.98947 0.80645 0.0
Cd58 Cd 0.29777 0.04207 0.81304 0.0
O59 O 0.32117 0.04374 0.85953 0.0
O60 O 0.39704 0.96939 0.79092 0.0
O61 O 0.37852 0.02501 0.77934 0.0
C62 C 0.40334 0.00047 0.77752 0.0
C63 C 0.27594 0.09759 0.79368 0.0
C64 C 0.34132 0.02054 0.87358 0.0
C65 C 0.27615 0.96718 0.78828 0.0
O66 O 0.26652 0.99801 0.79914 0.0
O67 O 0.30934 0.95868 0.78709 0.0
O68 O 0.26099 0.08088 0.81808 0.0
O69 O 0.30388 0.08293 0.78 0.0
O70 O 0.06521 0.35027 0.35671 0.0
Cd71 Cd 0.0693 0.3489 0.30575 0.0
Cd72 Cd 0.01835 0.29388 0.3114 0.0
O73 O 0.01723 0.31502 0.35884 0.0
O74 O 0.09034 0.39609 0.29236 0.0
O75 O 0.03461 0.37926 0.27954 0.0
C76 C 0.05964 0.40364 0.27887 0.0
C77 C 0.9629 0.27217 0.29199 0.0
C78 C 0.03971 0.33581 0.37307 0.0
C79 C 0.09307 0.27566 0.28452 0.0
O80 O 0.06278 0.26444 0.2953 0.0
O81 O 0.10051 0.30918 0.28477 0.0
O82 O 0.98035 0.25612 0.31535 0.0
O83 O 0.97681 0.3011 0.2794 0.0
O84 O 0.7092 0.06997 0.85579 0.0
Cd85 Cd 0.71204 0.07383 0.80488 0.0
Cd86 Cd 0.76443 0.02133 0.81087 0.0
O87 O 0.74209 0.02035 0.85782 0.0
O88 O 0.66513 0.09372 0.78957 0.0
O89 O 0.68353 0.03795 0.77843 0.0
C90 C 0.6587 0.06248 0.77655 0.0
C91 C 0.78479 0.96529 0.79163 0.0
C92 C 0.72208 0.04354 0.87204 0.0
C93 C 0.786 0.09563 0.78501 0.0
O94 O 0.79588 0.06484 0.79579 0.0
O95 O 0.7528 0.10424 0.78468 0.0
O96 O 0.80065 0.98199 0.81554 0.0
O97 O 0.75683 0.98031 0.77833 0.0
O98 O 0.00526 0.71801 0.35467 0.0
Cd99 Cd 0.99863 0.71811 0.30377 0.0
Cd100 Cd 0.04813 0.77543 0.30595 0.0
O101 O 0.04534 0.76214 0.35541 0.0
O102 O 0.97731 0.67042 0.29241 0.0
O103 O 0.03222 0.68718 0.27686 0.0
C104 C 0.00733 0.66268 0.27778 0.0
C105 C 0.10491 0.79544 0.28833 0.0
C106 C 0.02645 0.73872 0.37055 0.0
C107 C 0.97376 0.79003 0.27761 0.0
O108 O 0.00485 0.80206 0.28511 0.0
O109 O 0.9658 0.75704 0.28265 0.0
O110 O 0.08532 0.81405 0.30839 0.0
O111 O 0.09232 0.76498 0.27781 0.0
H112 H 0.36202 0.09775 0.07571 0.0
H113 H 0.36216 0.96764 0.91716 0.0
H114 H 0.33819 0.98365 0.08125 0.0
H115 H 0.33736 0.08154 0.91154 0.0
H116 H 0.3687 0.97343 0.97756 0.0
H117 H 0.36823 0.09214 0.01525 0.0
C118 C 0.35854 0.07148 0.06426 0.0
C119 C 0.3492 0.04119 0.08341 0.0
C120 C 0.36215 0.99715 0.96297 0.0
C121 C 0.35659 0.03459 0.01465 0.0
C122 C 0.35856 0.99392 0.92857 0.0
C123 C 0.34883 0.02408 0.90943 0.0
C124 C 0.35656 0.03088 0.97813 0.0
C125 C 0.34446 0.05751 0.92546 0.0
C126 C 0.36195 0.06834 0.02984 0.0
C127 C 0.34498 0.00777 0.06734 0.0
N128 N 0.3483 0.06002 0.95893 0.0
N129 N 0.34867 0.00536 0.03386 0.0
H130 H 0.08565 0.32983 0.58121 0.0
H131 H 0.97965 0.32878 0.41182 0.0
H132 H 0.97179 0.35442 0.57672 0.0
H133 H 0.09277 0.35649 0.41644 0.0
H134 H 0.97601 0.33443 0.47228 0.0
H135 H 0.08912 0.33589 0.52078 0.0
C136 C 0.06142 0.33671 0.5675 0.0
C137 C 0.02832 0.34142 0.58392 0.0
C138 C 0.00151 0.33966 0.46 0.0
C139 C 0.03206 0.34794 0.51491 0.0
C140 C 0.00367 0.33626 0.42557 0.0
C141 C 0.03663 0.34197 0.40918 0.0
C142 C 0.0327 0.34803 0.47821 0.0
C143 C 0.06685 0.35186 0.42813 0.0
C144 C 0.06348 0.34034 0.53309 0.0
C145 C 0.99783 0.35058 0.565 0.0
N146 N 0.06429 0.35407 0.46176 0.0
N147 N 0.00032 0.35302 0.53138 0.0
H148 H 0.72611 0.98254 0.90991 0.0
H149 H 0.72724 0.08621 0.0806 0.0
H150 H 0.70252 0.09665 0.91594 0.0
H151 H 0.70234 0.97238 0.07442 0.0
H152 H 0.72044 0.09092 0.02033 0.0
H153 H 0.71972 0.97807 0.9702 0.0
C154 C 0.71935 0.00662 0.92392 0.0
C155 C 0.7151 0.04009 0.90798 0.0
C156 C 0.71603 0.06503 0.03223 0.0
C157 C 0.70815 0.03519 0.97689 0.0
C158 C 0.72007 0.06226 0.06657 0.0
C159 C 0.71561 0.02878 0.08245 0.0
C160 C 0.70822 0.03395 0.0136 0.0
C161 C 0.70606 0.99869 0.06313 0.0
C162 C 0.71553 0.00399 0.95828 0.0
C163 C 0.70605 0.07035 0.92729 0.0
N164 N 0.70321 0.00187 0.02959 0.0
N165 N 0.70341 0.0673 0.96086 0.0
H166 H 0.04577 0.79267 0.4126 0.0
H167 H 0.05216 0.6783 0.5782 0.0
H168 H 0.012 0.68095 0.41152 0.0
H169 H 0.01898 0.79019 0.57598 0.0
H170 H 0.04908 0.67696 0.51703 0.0
H171 H 0.04854 0.7905 0.47312 0.0
C172 C 0.03911 0.7676 0.42512 0.0
C173 C 0.02851 0.73695 0.40709 0.0
C174 C 0.04239 0.70164 0.53016 0.0
C175 C 0.03205 0.73429 0.47623 0.0
C176 C 0.04431 0.7025 0.56487 0.0
C177 C 0.03578 0.7344 0.58207 0.0
C178 C 0.03284 0.73314 0.51282 0.0
C179 C 0.0256 0.76499 0.56372 0.0
C180 C 0.04055 0.76647 0.45961 0.0
C181 C 0.02004 0.70522 0.4246 0.0
N182 N 0.02477 0.7637 0.53008 0.0
N183 N 0.02224 0.70457 0.45837 0.0
H184 H 0.43193 0.99718 0.23381 0.0
H185 H 0.63452 0.07045 0.2336 0.0
H186 H 0.46106 0.10987 0.2261 0.0
H187 H 0.60531 0.95782 0.22552 0.0
H188 H 0.57136 0.08508 0.24538 0.0
H189 H 0.49513 0.98252 0.24529 0.0
C190 C 0.45146 0.01893 0.23517 0.0
C191 C 0.44133 0.05472 0.22837 0.0
C192 C 0.5789 0.05709 0.24157 0.0
C193 C 0.51367 0.03812 0.24121 0.0
C194 C 0.61498 0.04871 0.23497 0.0
C195 C 0.62506 0.01294 0.22796 0.0
C196 C 0.55279 0.0295 0.24114 0.0
C197 C 0.59863 0.98584 0.23025 0.0
C198 C 0.48757 0.01053 0.24161 0.0
C199 C 0.46777 0.08182 0.23067 0.0
N200 N 0.56363 0.99474 0.23619 0.0
N201 N 0.50279 0.07291 0.23645 0.0
H202 H 0.95605 0.45539 0.72623 0.0
H203 H 0.1061 0.60767 0.72205 0.0
H204 H 0.07036 0.43298 0.72984 0.0
H205 H 0.99214 0.63027 0.73064 0.0
H206 H 0.09395 0.54403 0.73339 0.0
H207 H 0.96871 0.51916 0.73644 0.0
C208 C 0.98381 0.46379 0.72971 0.0
C209 C 0.01225 0.43892 0.72664 0.0
C210 C 0.07162 0.56294 0.73333 0.0
C211 C 0.02699 0.51206 0.73789 0.0
C212 C 0.07854 0.59932 0.72683 0.0
C213 C 0.05 0.62421 0.72487 0.0
C214 C 0.03582 0.55122 0.73745 0.0
C215 C 0.01491 0.61195 0.73164 0.0
C216 C 0.99103 0.50026 0.73555 0.0
C217 C 0.04764 0.45128 0.73174 0.0
N218 N 0.00873 0.57619 0.73707 0.0
N219 N 0.05405 0.4871 0.73654 0.0
H220 H 0.60378 0.10974 0.76344 0.0
H221 H 0.45815 0.95308 0.76445 0.0
H222 H 0.63076 0.99628 0.75994 0.0
H223 H 0.43116 0.06651 0.76015 0.0
H224 H 0.521 0.96814 0.75265 0.0
H225 H 0.54087 0.09457 0.75211 0.0
C226 C 0.59658 0.08164 0.75973 0.0
C227 C 0.62245 0.05416 0.76323 0.0
C228 C 0.50128 0.98973 0.75372 0.0
C229 C 0.5503 0.03655 0.75068 0.0
C230 C 0.46534 0.98114 0.76045 0.0
C231 C 0.43949 0.00865 0.76387 0.0
C232 C 0.51157 0.02614 0.75081 0.0
C233 C 0.45026 0.04447 0.75807 0.0
C234 C 0.5606 0.07299 0.75325 0.0
C235 C 0.61164 0.0183 0.75778 0.0
N236 N 0.48562 0.05224 0.75241 0.0
N237 N 0.57625 0.01047 0.75236 0.0
H238 H 0.10868 0.45723 0.26679 0.0
H239 H 0.95789 0.60884 0.26843 0.0
H240 H 0.99452 0.43417 0.26265 0.0
H241 H 0.07176 0.63185 0.25975 0.0
H242 H 0.97039 0.54509 0.25797 0.0
H243 H 0.09575 0.5208 0.25582 0.0
C244 C 0.08089 0.46545 0.26304 0.0
C245 C 0.05257 0.44046 0.26617 0.0
C246 C 0.99262 0.56411 0.25781 0.0
C247 C 0.03752 0.51338 0.25404 0.0
C248 C 0.9855 0.60056 0.2638 0.0
C249 C 0.01391 0.6256 0.26549 0.0
C250 C 0.02848 0.55249 0.25393 0.0
C251 C 0.04908 0.61341 0.25894 0.0
C252 C 0.07352 0.5018 0.25676 0.0
C253 C 0.01715 0.45257 0.26073 0.0
N254 N 0.05545 0.57759 0.25402 0.0
N255 N 0.01058 0.4883 0.2555 0.0
H256 H 0.1631 0.28891 0.26629 0.0
H257 H 0.20529 0.08407 0.21554 0.0
H258 H 0.08508 0.20262 0.27493 0.0
H259 H 0.28707 0.1668 0.22417 0.0
H260 H 0.15999 0.1277 0.23413 0.0
H261 H 0.2079 0.24514 0.24734 0.0
C262 C 0.15532 0.26078 0.26413 0.0
C263 C 0.12022 0.24945 0.27227 0.0
C264 C 0.18786 0.13626 0.23201 0.0
C265 C 0.17153 0.19914 0.25056 0.0
C266 C 0.21376 0.11138 0.22135 0.0
C267 C 0.25009 0.12176 0.21828 0.0
C268 C 0.19829 0.17186 0.23943 0.0
C269 C 0.25943 0.15753 0.22622 0.0
C270 C 0.18099 0.23577 0.25339 0.0
C271 C 0.1118 0.21259 0.26901 0.0
N272 N 0.23369 0.18129 0.23632 0.0
N273 N 0.13726 0.18876 0.25837 0.0
H274 H 0.98212 0.20058 0.71748 0.0
H275 H 0.77578 0.1664 0.76732 0.0
H276 H 0.90287 0.28571 0.72648 0.0
H277 H 0.85871 0.08484 0.77619 0.0
H278 H 0.82145 0.20962 0.74907 0.0
H279 H 0.93678 0.15698 0.73608 0.0
C280 C 0.95523 0.21014 0.7234 0.0
C281 C 0.94632 0.2469 0.72039 0.0
C282 C 0.82968 0.18228 0.75504 0.0
C283 C 0.89426 0.19707 0.74153 0.0
C284 C 0.80358 0.15752 0.76537 0.0
C285 C 0.81339 0.12189 0.77334 0.0
C286 C 0.86589 0.17136 0.75242 0.0
C287 C 0.84989 0.11203 0.77038 0.0
C288 C 0.92937 0.18522 0.73406 0.0
C289 C 0.91103 0.25768 0.72847 0.0
N290 N 0.8748 0.13661 0.76009 0.0
N291 N 0.88629 0.23288 0.73854 0.0
H292 H 0.902 0.77686 0.26516 0.0
H293 H 0.86133 0.9798 0.20653 0.0
H294 H 0.98282 0.86086 0.25984 0.0
H295 H 0.77806 0.89987 0.22237 0.0
H296 H 0.90661 0.93537 0.22299 0.0
H297 H 0.85667 0.82026 0.24603 0.0
C298 C 0.91028 0.80434 0.2598 0.0
C299 C 0.94629 0.81523 0.26424 0.0
C300 C 0.87844 0.92753 0.22288 0.0
C301 C 0.89451 0.86503 0.24244 0.0
C302 C 0.85252 0.95291 0.21348 0.0
C303 C 0.81577 0.94362 0.21312 0.0
C304 C 0.86763 0.89248 0.23191 0.0
C305 C 0.80605 0.9083 0.22237 0.0
C306 C 0.88435 0.82913 0.24898 0.0
C307 C 0.9554 0.85123 0.25692 0.0
N308 N 0.83182 0.88402 0.23136 0.0
N309 N 0.92969 0.8748 0.24645 0.0
H310 H 0.16156 0.77482 0.72453 0.0
H311 H 0.20306 0.97743 0.78353 0.0
H312 H 0.08142 0.85958 0.72841 0.0
H313 H 0.28588 0.89681 0.76861 0.0
H314 H 0.15766 0.93345 0.76631 0.0
H315 H 0.20697 0.81791 0.74402 0.0
C316 C 0.15344 0.80241 0.72964 0.0
C317 C 0.1176 0.81359 0.72472 0.0
C318 C 0.18577 0.92537 0.76678 0.0
C319 C 0.16948 0.86304 0.74694 0.0
C320 C 0.21174 0.95049 0.77663 0.0
C321 C 0.2484 0.94086 0.77748 0.0
C322 C 0.19642 0.89025 0.75783 0.0
C323 C 0.25797 0.90549 0.76825 0.0
C324 C 0.17942 0.82702 0.74066 0.0
C325 C 0.10871 0.84972 0.73171 0.0
N326 N 0.23214 0.88147 0.75885 0.0
N327 N 0.13445 0.87311 0.74242 0.0
H328 H 0.82491 0.91614 0.82566 0.0
H329 H 0.91492 0.84034 0.66575 0.0
H330 H 0.78031 0.93755 0.72865 0.0
H331 H 0.92503 0.78504 0.75963 0.0
H332 H 0.86323 0.87377 0.68759 0.0
H333 H 0.85917 0.86567 0.80242 0.0
C334 C 0.82191 0.90979 0.79953 0.0
C335 C 0.80015 0.93123 0.7789 0.0
C336 C 0.87624 0.85382 0.70324 0.0
C337 C 0.83973 0.87402 0.75208 0.0
C338 C 0.90583 0.83486 0.69084 0.0
C339 C 0.92442 0.81027 0.71111 0.0
C340 C 0.86579 0.84886 0.73643 0.0
C341 C 0.91143 0.80389 0.74329 0.0
C342 C 0.84134 0.8809 0.78632 0.0
C343 C 0.79693 0.92171 0.74533 0.0
N344 N 0.88332 0.82371 0.75526 0.0
N345 N 0.81718 0.89423 0.73276 0.0
H346 H 0.28596 0.93812 0.26302 0.0
H347 H 0.13894 0.7839 0.22876 0.0
H348 H 0.24039 0.91603 0.16651 0.0
H349 H 0.14962 0.84077 0.3218 0.0
H350 H 0.19122 0.81756 0.20723 0.0
H351 H 0.25105 0.88741 0.28591 0.0
C352 C 0.26931 0.92206 0.24654 0.0
C353 C 0.26552 0.9315 0.21299 0.0
C354 C 0.18246 0.82205 0.23257 0.0
C355 C 0.22598 0.87371 0.23878 0.0
C356 C 0.15282 0.80281 0.24487 0.0
C357 C 0.13976 0.81008 0.27686 0.0
C358 C 0.19931 0.84813 0.25269 0.0
C359 C 0.15858 0.83485 0.29677 0.0
C360 C 0.24934 0.89331 0.2596 0.0
C361 C 0.24357 0.9099 0.19265 0.0
N362 N 0.18728 0.8532 0.2843 0.0
N363 N 0.22438 0.88216 0.20591 0.0
H364 H 0.14922 0.22659 0.66596 0.0
H365 H 0.23379 0.14529 0.82747 0.0
H366 H 0.13352 0.27645 0.76175 0.0
H367 H 0.28056 0.12606 0.73091 0.0
H368 H 0.19912 0.19549 0.80431 0.0
H369 H 0.19949 0.19177 0.68874 0.0
C370 C 0.15673 0.23056 0.69172 0.0
C371 C 0.13698 0.25408 0.71215 0.0
C372 C 0.21744 0.18076 0.78828 0.0
C373 C 0.19407 0.21391 0.7385 0.0
C374 C 0.23713 0.15201 0.80145 0.0
C375 C 0.25972 0.13129 0.78094 0.0
C376 C 0.21971 0.18831 0.75418 0.0
C377 C 0.26332 0.14132 0.74751 0.0
C378 C 0.18552 0.21079 0.70466 0.0
C379 C 0.14801 0.25849 0.74522 0.0
N380 N 0.24292 0.16871 0.73498 0.0
N381 N 0.17542 0.238 0.75759 0.0
H382 H 0.93265 0.28032 0.23027 0.0
H383 H 0.783 0.12793 0.26248 0.0
H384 H 0.91675 0.22729 0.32462 0.0
H385 H 0.8312 0.14876 0.16677 0.0
H386 H 0.81856 0.17787 0.28591 0.0
H387 H 0.88192 0.24548 0.20741 0.0
C388 C 0.91802 0.26193 0.24632 0.0
C389 C 0.92914 0.25622 0.2792 0.0
C390 C 0.82082 0.1718 0.25966 0.0
C391 C 0.87129 0.21671 0.25344 0.0
C392 C 0.80047 0.14349 0.24629 0.0
C393 C 0.80463 0.13396 0.21279 0.0
C394 C 0.84498 0.19091 0.23923 0.0
C395 C 0.82764 0.15493 0.19286 0.0
C396 C 0.88925 0.242 0.23326 0.0
C397 C 0.90933 0.23206 0.29897 0.0
N398 N 0.84714 0.18229 0.20642 0.0
N399 N 0.88149 0.21301 0.28574 0.0
loop_
_geom_bond_atom_site_label_1
_geom_bond_atom_site_label_2
_geom_bond_distance
_geom_bond_site_symmetry_2
_ccdc_geom_bond_type
O0 Cd1 2.223 . S
O0 C8 1.315 . S
Cd1 O0 2.223 . S
Cd1 O4 2.297 . S
Cd1 O5 2.439 . S
Cd1 O11 2.240 . S
Cd2 O3 2.240 1_565 S
Cd2 O10 2.223 1_565 S
Cd2 O12 2.297 . S
Cd2 O13 2.439 . S
O3 Cd2 2.240 1_545 S
O3 C8 1.279 . S
O4 Cd1 2.297 . S
O4 C6 1.247 . S
O5 Cd1 2.439 . S
O5 C6 1.208 . S
C6 O4 1.247 . S
C6 O5 1.208 . S
C7 O12 1.247 . S
C7 O13 1.208 . S
C8 O0 1.315 . S
C8 O3 1.279 . S
C9 O10 1.315 . S
C9 O11 1.279 . S
O10 Cd2 2.223 1_545 S
O10 C9 1.315 . S
O11 Cd1 2.240 . S
O11 C9 1.279 . S
O12 Cd2 2.297 . S
O12 C7 1.247 . S
O13 Cd2 2.439 . S
O13 C7 1.208 . S
O14 Cd15 2.227 . S
O14 C22 1.315 1_655 S
Cd15 O14 2.227 . S
Cd15 O18 2.295 1_655 S
Cd15 O19 2.424 1_655 S
Cd15 O25 2.238 1_655 S
Cd16 O17 2.240 . S
Cd16 O24 2.223 . S
Cd16 O26 2.297 . S
Cd16 O27 2.439 . S
O17 Cd16 2.240 . S
O17 C22 1.279 . S
O18 Cd15 2.295 1_455 S
O18 C20 1.247 . S
O19 Cd15 2.424 1_455 S
O19 C20 1.208 . S
C20 O18 1.247 . S
C20 O19 1.208 . S
C21 O26 1.247 . S
C21 O27 1.208 . S
C22 O14 1.315 1_455 S
C22 O17 1.279 . S
C23 O24 1.315 1_655 S
C23 O25 1.279 1_655 S
O24 Cd16 2.223 . S
O24 C23 1.315 1_455 S
O25 Cd15 2.238 1_455 S
O25 C23 1.279 1_455 S
O26 Cd16 2.297 . S
O26 C21 1.247 . S
O27 Cd16 2.439 . S
O27 C21 1.208 . S
O28 Cd29 2.227 . S
O28 C36 1.315 1_565 S
Cd29 O28 2.227 . S
Cd29 O32 2.295 1_565 S
Cd29 O33 2.425 1_565 S
Cd29 O39 2.238 1_565 S
Cd30 O31 2.240 . S
Cd30 O38 2.223 . S
Cd30 O40 2.297 . S
Cd30 O41 2.439 . S
O31 Cd30 2.240 . S
O31 C36 1.279 . S
O32 Cd29 2.295 1_545 S
O32 C34 1.247 . S
O33 Cd29 2.425 1_545 S
O33 C34 1.208 . S
C34 O32 1.247 . S
C34 O33 1.208 . S
C35 O40 1.247 . S
C35 O41 1.208 . S
C36 O28 1.315 1_545 S
C36 O31 1.279 . S
C37 O38 1.315 1_565 S
C37 O39 1.279 1_565 S
O38 Cd30 2.223 . S
O38 C37 1.315 1_545 S
O39 Cd29 2.238 1_545 S
O39 C37 1.279 1_545 S
O40 Cd30 2.297 . S
O40 C35 1.247 . S
O41 Cd30 2.439 . S
O41 C35 1.208 . S
O42 Cd43 2.223 . S
O42 C50 1.315 . S
Cd43 O42 2.223 . S
Cd43 O46 2.297 . S
Cd43 O47 2.439 . S
Cd43 O53 2.240 . S
Cd44 O45 2.240 1_655 S
Cd44 O52 2.223 1_655 S
Cd44 O54 2.297 . S
Cd44 O55 2.439 . S
O45 Cd44 2.240 1_455 S
O45 C50 1.279 . S
O46 Cd43 2.297 . S
O46 C48 1.247 . S
O47 Cd43 2.439 . S
O47 C48 1.208 . S
C48 O46 1.247 . S
C48 O47 1.208 . S
C49 O54 1.247 . S
C49 O55 1.208 . S
C50 O42 1.315 . S
C50 O45 1.279 . S
C51 O52 1.315 . S
C51 O53 1.279 . S
O52 Cd44 2.223 1_455 S
O52 C51 1.315 . S
O53 Cd43 2.240 . S
O53 C51 1.279 . S
O54 Cd44 2.297 . S
O54 C49 1.247 . S
O55 Cd44 2.439 . S
O55 C49 1.208 . S
O56 Cd57 2.227 . S
O56 C64 1.315 1_565 S
Cd57 O56 2.227 . S
Cd57 O60 2.295 1_565 S
Cd57 O61 2.424 1_565 S
Cd57 O67 2.238 1_565 S
Cd58 O59 2.240 . S
Cd58 O66 2.223 . S
Cd58 O68 2.297 . S
Cd58 O69 2.439 . S
O59 Cd58 2.240 . S
O59 C64 1.279 . S
O60 Cd57 2.295 1_545 S
O60 C62 1.247 . S
O61 Cd57 2.424 1_545 S
O61 C62 1.208 . S
C62 O60 1.247 . S
C62 O61 1.208 . S
C63 O68 1.247 . S
C63 O69 1.208 . S
C64 O56 1.315 1_545 S
C64 O59 1.279 . S
C65 O66 1.315 1_565 S
C65 O67 1.279 1_565 S
O66 Cd58 2.223 . S
O66 C65 1.315 1_545 S
O67 Cd57 2.238 1_545 S
O67 C65 1.279 1_545 S
O68 Cd58 2.297 . S
O68 C63 1.247 . S
O69 Cd58 2.439 . S
O69 C63 1.208 . S
O70 Cd71 2.223 . S
O70 C78 1.315 . S
Cd71 O70 2.223 . S
Cd71 O74 2.297 . S
Cd71 O75 2.439 . S
Cd71 O81 2.240 . S
Cd72 O73 2.240 1_655 S
Cd72 O80 2.223 1_655 S
Cd72 O82 2.297 . S
Cd72 O83 2.439 . S
O73 Cd72 2.240 1_455 S
O73 C78 1.279 . S
O74 Cd71 2.297 . S
O74 C76 1.247 . S
O75 Cd71 2.439 . S
O75 C76 1.208 . S
C76 O74 1.247 . S
C76 O75 1.208 . S
C77 O82 1.247 . S
C77 O83 1.208 . S
C78 O70 1.315 . S
C78 O73 1.279 . S
C79 O80 1.315 . S
C79 O81 1.279 . S
O80 Cd72 2.223 1_455 S
O80 C79 1.315 . S
O81 Cd71 2.240 . S
O81 C79 1.279 . S
O82 Cd72 2.297 . S
O82 C77 1.247 . S
O83 Cd72 2.439 . S
O83 C77 1.208 . S
O84 Cd85 2.223 . S
O84 C92 1.315 . S
Cd85 O84 2.223 . S
Cd85 O88 2.297 . S
Cd85 O89 2.439 . S
Cd85 O95 2.240 . S
Cd86 O87 2.240 1_565 S
Cd86 O94 2.223 1_565 S
Cd86 O96 2.297 . S
Cd86 O97 2.439 . S
O87 Cd86 2.240 1_545 S
O87 C92 1.279 . S
O88 Cd85 2.297 . S
O88 C90 1.247 . S
O89 Cd85 2.439 . S
O89 C90 1.208 . S
C90 O88 1.247 . S
C90 O89 1.208 . S
C91 O96 1.247 . S
C91 O97 1.208 . S
C92 O84 1.315 . S
C92 O87 1.279 . S
C93 O94 1.315 . S
C93 O95 1.279 . S
O94 Cd86 2.223 1_545 S
O94 C93 1.315 . S
O95 Cd85 2.240 . S
O95 C93 1.279 . S
O96 Cd86 2.297 . S
O96 C91 1.247 . S
O97 Cd86 2.439 . S
O97 C91 1.208 . S
O98 Cd99 2.227 . S
O98 C106 1.315 1_655 S
Cd99 O98 2.227 . S
Cd99 O102 2.295 1_655 S
Cd99 O103 2.425 1_655 S
Cd99 O109 2.238 1_655 S
Cd100 O101 2.240 . S
Cd100 O108 2.223 . S
Cd100 O110 2.297 . S
Cd100 O111 2.439 . S
O101 Cd100 2.240 . S
O101 C106 1.279 . S
O102 Cd99 2.295 1_455 S
O102 C104 1.247 . S
O103 Cd99 2.425 1_455 S
O103 C104 1.208 . S
C104 O102 1.247 . S
C104 O103 1.208 . S
C105 O110 1.247 . S
C105 O111 1.208 . S
C106 O98 1.315 1_455 S
C106 O101 1.279 . S
C107 O108 1.315 1_655 S
C107 O109 1.279 1_655 S
O108 Cd100 2.223 . S
O108 C107 1.315 1_455 S
O109 Cd99 2.238 1_455 S
O109 C107 1.279 1_455 S
O110 Cd100 2.297 . S
O110 C105 1.247 . S
O111 Cd100 2.439 . S
O111 C105 1.208 . S
H112 C118 0.930 . S
H113 C122 0.930 . S
H114 C127 0.929 1_565 S
H115 C125 0.929 . S
H116 C120 0.929 . S
H117 C126 0.929 . S
C118 H112 0.930 . S
C118 C119 1.367 . S
C118 C126 1.378 . S
C119 C118 1.367 . S
C119 C127 1.433 . S
C120 H116 0.929 . S
C120 C122 1.378 . S
C120 C124 1.350 1_565 S
C121 C124 1.463 1_554 S
C121 C126 1.350 . S
C121 N129 1.427 . S
C122 H113 0.930 . S
C122 C120 1.378 . S
C122 C123 1.367 1_565 S
C123 C122 1.367 1_545 S
C123 C125 1.433 . S
C124 C120 1.350 1_545 S
C124 C121 1.463 1_556 S
C124 N128 1.427 . S
C125 H115 0.929 . S
C125 C123 1.433 . S
C125 N128 1.384 . S
C126 H117 0.929 . S
C126 C118 1.378 . S
C126 C121 1.350 . S
C127 H114 0.929 1_545 S
C127 C119 1.433 . S
C127 N129 1.384 . S
N128 C124 1.427 . S
N128 C125 1.384 . S
N129 C121 1.427 . S
N129 C127 1.384 . S
H130 C136 0.930 . S
H131 C140 0.930 1_655 S
H132 C145 0.929 . S
H133 C143 0.929 . S
H134 C138 0.929 1_655 S
H135 C144 0.929 . S
C136 H130 0.930 . S
C136 C137 1.367 . S
C136 C144 1.378 . S
C137 C136 1.367 . S
C137 C145 1.433 1_455 S
C138 H134 0.929 1_455 S
C138 C140 1.378 . S
C138 C142 1.350 . S
C139 C142 1.463 . S
C139 C144 1.350 . S
C139 N147 1.427 1_455 S
C140 H131 0.930 1_455 S
C140 C138 1.378 . S
C140 C141 1.367 . S
C141 C140 1.367 . S
C141 C143 1.433 . S
C142 C138 1.350 . S
C142 C139 1.463 . S
C142 N146 1.427 . S
C143 H133 0.929 . S
C143 C141 1.433 . S
C143 N146 1.384 . S
C144 H135 0.929 . S
C144 C136 1.378 . S
C144 C139 1.350 . S
C145 H132 0.929 . S
C145 C137 1.433 1_655 S
C145 N147 1.384 . S
N146 C142 1.427 . S
N146 C143 1.384 . S
N147 C139 1.427 1_655 S
N147 C145 1.384 . S
H148 C154 0.930 1_565 S
H149 C158 0.930 . S
H150 C163 0.929 . S
H151 C161 0.929 . S
H152 C156 0.929 . S
H153 C162 0.929 1_565 S
C154 H148 0.930 1_545 S
C154 C155 1.367 . S
C154 C162 1.378 . S
C155 C154 1.367 . S
C155 C163 1.433 . S
C156 H152 0.929 . S
C156 C158 1.378 . S
C156 C160 1.350 . S
C157 C160 1.463 1_556 S
C157 C162 1.350 . S
C157 N165 1.427 . S
C158 H149 0.930 . S
C158 C156 1.378 . S
C158 C159 1.367 . S
C159 C158 1.367 . S
C159 C161 1.433 1_545 S
C160 C156 1.350 . S
C160 C157 1.463 1_554 S
C160 N164 1.427 1_545 S
C161 H151 0.929 . S
C161 C159 1.433 1_565 S
C161 N164 1.384 . S
C162 H153 0.929 1_545 S
C162 C154 1.378 . S
C162 C157 1.350 . S
C163 H150 0.929 . S
C163 C155 1.433 . S
C163 N165 1.384 . S
N164 C160 1.427 1_565 S
N164 C161 1.384 . S
N165 C157 1.427 . S
N165 C163 1.384 . S
H166 C172 0.930 . S
H167 C176 0.930 . S
H168 C181 0.929 . S
H169 C179 0.929 . S
H170 C174 0.929 . S
H171 C180 0.929 . S
C172 H166 0.930 . S
C172 C173 1.367 . S
C172 C180 1.378 . S
C173 C172 1.367 . S
C173 C181 1.433 . S
C174 H170 0.929 . S
C174 C176 1.378 . S
C174 C178 1.350 . S
C175 C178 1.463 . S
C175 C180 1.350 . S
C175 N183 1.427 . S
C176 H167 0.930 . S
C176 C174 1.378 . S
C176 C177 1.367 . S
C177 C176 1.367 . S
C177 C179 1.433 . S
C178 C174 1.350 . S
C178 C175 1.463 . S
C178 N182 1.427 . S
C179 H169 0.929 . S
C179 C177 1.433 . S
C179 N182 1.384 . S
C180 H171 0.929 . S
C180 C172 1.378 . S
C180 C175 1.350 . S
C181 H168 0.929 . S
C181 C173 1.433 . S
C181 N183 1.384 . S
N182 C178 1.427 . S
N182 C179 1.384 . S
N183 C175 1.427 . S
N183 C181 1.384 . S
H184 C190 0.930 1_565 S
H185 C194 0.930 . S
H186 C199 0.929 . S
H187 C197 0.929 . S
H188 C192 0.929 . S
H189 C198 0.918 1_565 S
C190 H184 0.930 1_545 S
C190 C191 1.367 . S
C190 C198 1.378 . S
C191 C190 1.367 . S
C191 C199 1.433 . S
C192 H188 0.929 . S
C192 C194 1.378 . S
C192 C196 1.350 . S
C193 C196 1.463 . S
C193 C198 1.350 . S
C193 N201 1.427 . S
C194 H185 0.930 . S
C194 C192 1.378 . S
C194 C195 1.367 . S
C195 C194 1.367 . S
C195 C197 1.433 . S
C196 C192 1.350 . S
C196 C193 1.463 . S
C196 N200 1.427 . S
C197 H187 0.929 . S
C197 C195 1.433 . S
C197 N200 1.384 . S
C198 H189 0.918 1_545 S
C198 C190 1.378 . S
C198 C193 1.350 . S
C199 H186 0.929 . S
C199 C191 1.433 . S
C199 N201 1.384 . S
N200 C196 1.427 . S
N200 C197 1.384 . S
N201 C193 1.427 . S
N201 C199 1.384 . S
H202 C208 0.930 . S
H203 C212 0.930 . S
H204 C217 0.929 . S
H205 C215 0.929 . S
H206 C210 0.929 . S
H207 C216 0.929 1_655 S
C208 H202 0.930 . S
C208 C209 1.367 . S
C208 C216 1.378 . S
C209 C208 1.367 . S
C209 C217 1.433 . S
C210 H206 0.929 . S
C210 C212 1.378 . S
C210 C214 1.350 . S
C211 C214 1.463 . S
C211 C216 1.350 . S
C211 N219 1.427 . S
C212 H203 0.930 . S
C212 C210 1.378 . S
C212 C213 1.367 . S
C213 C212 1.367 . S
C213 C215 1.433 1_455 S
C214 C210 1.350 . S
C214 C211 1.463 . S
C214 N218 1.427 . S
C215 H205 0.929 . S
C215 C213 1.433 1_655 S
C215 N218 1.384 1_655 S
C216 H207 0.929 1_455 S
C216 C208 1.378 . S
C216 C211 1.350 . S
C217 H204 0.929 . S
C217 C209 1.433 . S
C217 N219 1.384 . S
N218 C214 1.427 . S
N218 C215 1.384 1_455 S
N219 C211 1.427 . S
N219 C217 1.384 . S
H220 C226 0.930 . S
H221 C230 0.930 1_565 S
H222 C235 0.929 . S
H223 C233 0.929 . S
H224 C228 0.929 1_565 S
H225 C234 0.929 . S
C226 H220 0.930 . S
C226 C227 1.367 . S
C226 C234 1.378 . S
C227 C226 1.367 . S
C227 C235 1.433 1_545 S
C228 H224 0.929 1_545 S
C228 C230 1.378 . S
C228 C232 1.350 . S
C229 C232 1.463 . S
C229 C234 1.350 . S
C229 N237 1.427 1_545 S
C230 H221 0.930 1_545 S
C230 C228 1.378 . S
C230 C231 1.367 . S
C231 C230 1.367 . S
C231 C233 1.433 . S
C232 C228 1.350 . S
C232 C229 1.463 . S
C232 N236 1.427 . S
C233 H223 0.929 . S
C233 C231 1.433 . S
C233 N236 1.384 . S
C234 H225 0.929 . S
C234 C226 1.378 . S
C234 C229 1.350 . S
C235 H222 0.929 . S
C235 C227 1.433 1_565 S
C235 N237 1.384 . S
N236 C232 1.427 . S
N236 C233 1.384 . S
N237 C229 1.427 1_565 S
N237 C235 1.384 . S
H238 C244 0.930 . S
H239 C248 0.930 . S
H240 C253 0.929 1_655 S
H241 C251 0.929 . S
H242 C246 0.929 . S
H243 C252 0.929 . S
C244 H238 0.930 . S
C244 C245 1.367 . S
C244 C252 1.378 . S
C245 C244 1.367 . S
C245 C253 1.433 . S
C246 H242 0.929 . S
C246 C248 1.378 . S
C246 C250 1.350 . S
C247 C250 1.463 . S
C247 C252 1.350 . S
C247 N255 1.427 . S
C248 H239 0.930 . S
C248 C246 1.378 . S
C248 C249 1.367 . S
C249 C248 1.367 . S
C249 C251 1.433 . S
C250 C246 1.350 . S
C250 C247 1.463 . S
C250 N254 1.427 . S
C251 H241 0.929 . S
C251 C249 1.433 . S
C251 N254 1.384 . S
C252 H243 0.929 . S
C252 C244 1.378 . S
C252 C247 1.350 . S
C253 H240 0.929 1_455 S
C253 C245 1.433 . S
C253 N255 1.384 . S
N254 C250 1.427 . S
N254 C251 1.384 . S
N255 C247 1.427 . S
N255 C253 1.384 . S
H256 C262 0.930 . S
H257 C266 0.930 . S
H258 C271 0.929 . S
H259 C269 0.929 . S
H260 C264 0.929 . S
H261 C270 0.929 . S
C262 H256 0.930 . S
C262 C263 1.367 . S
C262 C270 1.378 . S
C263 C262 1.367 . S
C263 C271 1.433 . S
C264 H260 0.929 . S
C264 C266 1.378 . S
C264 C268 1.350 . S
C265 C268 1.463 . S
C265 C270 1.350 . S
C265 N273 1.427 . S
C266 H257 0.930 . S
C266 C264 1.378 . S
C266 C267 1.367 . S
C267 C266 1.367 . S
C267 C269 1.433 . S
C268 C264 1.350 . S
C268 C265 1.463 . S
C268 N272 1.427 . S
C269 H259 0.929 . S
C269 C267 1.433 . S
C269 N272 1.384 . S
C270 H261 0.929 . S
C270 C262 1.378 . S
C270 C265 1.350 . S
C271 H258 0.929 . S
C271 C263 1.433 . S
C271 N273 1.384 . S
N272 C268 1.427 . S
N272 C269 1.384 . S
N273 C265 1.427 . S
N273 C271 1.384 . S
H274 C280 0.930 . S
H275 C284 0.930 . S
H276 C289 0.929 . S
H277 C287 0.929 . S
H278 C282 0.929 . S
H279 C288 0.929 . S
C280 H274 0.930 . S
C280 C281 1.367 . S
C280 C288 1.378 . S
C281 C280 1.367 . S
C281 C289 1.433 . S
C282 H278 0.929 . S
C282 C284 1.378 . S
C282 C286 1.350 . S
C283 C286 1.463 . S
C283 C288 1.350 . S
C283 N291 1.427 . S
C284 H275 0.930 . S
C284 C282 1.378 . S
C284 C285 1.367 . S
C285 C284 1.367 . S
C285 C287 1.433 . S
C286 C282 1.350 . S
C286 C283 1.463 . S
C286 N290 1.427 . S
C287 H277 0.929 . S
C287 C285 1.433 . S
C287 N290 1.384 . S
C288 H279 0.929 . S
C288 C280 1.378 . S
C288 C283 1.350 . S
C289 H276 0.929 . S
C289 C281 1.433 . S
C289 N291 1.384 . S
N290 C286 1.427 . S
N290 C287 1.384 . S
N291 C283 1.427 . S
N291 C289 1.384 . S
H292 C298 0.930 . S
H293 C302 0.930 . S
H294 C307 0.929 . S
H295 C305 0.929 . S
H296 C300 0.929 . S
H297 C306 0.929 . S
C298 H292 0.930 . S
C298 C299 1.367 . S
C298 C306 1.378 . S
C299 C298 1.367 . S
C299 C307 1.433 . S
C300 H296 0.929 . S
C300 C302 1.378 . S
C300 C304 1.350 . S
C301 C304 1.463 . S
C301 C306 1.350 . S
C301 N309 1.427 . S
C302 H293 0.930 . S
C302 C300 1.378 . S
C302 C303 1.367 . S
C303 C302 1.367 . S
C303 C305 1.433 . S
C304 C300 1.350 . S
C304 C301 1.463 . S
C304 N308 1.427 . S
C305 H295 0.929 . S
C305 C303 1.433 . S
C305 N308 1.384 . S
C306 H297 0.929 . S
C306 C298 1.378 . S
C306 C301 1.350 . S
C307 H294 0.929 . S
C307 C299 1.433 . S
C307 N309 1.384 . S
N308 C304 1.427 . S
N308 C305 1.384 . S
N309 C301 1.427 . S
N309 C307 1.384 . S
H310 C316 0.930 . S
H311 C320 0.930 . S
H312 C325 0.929 . S
H313 C323 0.929 . S
H314 C318 0.929 . S
H315 C324 0.929 . S
C316 H310 0.930 . S
C316 C317 1.367 . S
C316 C324 1.378 . S
C317 C316 1.367 . S
C317 C325 1.433 . S
C318 H314 0.929 . S
C318 C320 1.378 . S
C318 C322 1.350 . S
C319 C322 1.463 . S
C319 C324 1.350 . S
C319 N327 1.427 . S
C320 H311 0.930 . S
C320 C318 1.378 . S
C320 C321 1.367 . S
C321 C320 1.367 . S
C321 C323 1.433 . S
C322 C318 1.350 . S
C322 C319 1.463 . S
C322 N326 1.427 . S
C323 H313 0.929 . S
C323 C321 1.433 . S
C323 N326 1.384 . S
C324 H315 0.929 . S
C324 C316 1.378 . S
C324 C319 1.350 . S
C325 H312 0.929 . S
C325 C317 1.433 . S
C325 N327 1.384 . S
N326 C322 1.427 . S
N326 C323 1.384 . S
N327 C319 1.427 . S
N327 C325 1.384 . S
H328 C334 0.930 . S
H329 C338 0.930 . S
H330 C343 0.929 . S
H331 C341 0.929 . S
H332 C336 0.929 . S
H333 C342 0.929 . S
C334 H328 0.930 . S
C334 C335 1.367 . S
C334 C342 1.378 . S
C335 C334 1.367 . S
C335 C343 1.433 . S
C336 H332 0.929 . S
C336 C338 1.378 . S
C336 C340 1.350 . S
C337 C340 1.463 . S
C337 C342 1.350 . S
C337 N345 1.427 . S
C338 H329 0.930 . S
C338 C336 1.378 . S
C338 C339 1.367 . S
C339 C338 1.367 . S
C339 C341 1.433 . S
C340 C336 1.350 . S
C340 C337 1.463 . S
C340 N344 1.427 . S
C341 H331 0.929 . S
C341 C339 1.433 . S
C341 N344 1.384 . S
C342 H333 0.929 . S
C342 C334 1.378 . S
C342 C337 1.350 . S
C343 H330 0.929 . S
C343 C335 1.433 . S
C343 N345 1.384 . S
N344 C340 1.427 . S
N344 C341 1.384 . S
N345 C337 1.427 . S
N345 C343 1.384 . S
H346 C352 0.930 . S
H347 C356 0.930 . S
H348 C361 0.929 . S
H349 C359 0.929 . S
H350 C354 0.929 . S
H351 C360 0.929 . S
C352 H346 0.930 . S
C352 C353 1.367 . S
C352 C360 1.378 . S
C353 C352 1.367 . S
C353 C361 1.433 . S
C354 H350 0.929 . S
C354 C356 1.378 . S
C354 C358 1.350 . S
C355 C358 1.463 . S
C355 C360 1.350 . S
C355 N363 1.427 . S
C356 H347 0.930 . S
C356 C354 1.378 . S
C356 C357 1.367 . S
C357 C356 1.367 . S
C357 C359 1.433 . S
C358 C354 1.350 . S
C358 C355 1.463 . S
C358 N362 1.427 . S
C359 H349 0.929 . S
C359 C357 1.433 . S
C359 N362 1.384 . S
C360 H351 0.929 . S
C360 C352 1.378 . S
C360 C355 1.350 . S
C361 H348 0.929 . S
C361 C353 1.433 . S
C361 N363 1.384 . S
N362 C358 1.427 . S
N362 C359 1.384 . S
N363 C355 1.427 . S
N363 C361 1.384 . S
H364 C370 0.930 . S
H365 C374 0.930 . S
H366 C379 0.929 . S
H367 C377 0.929 . S
H368 C372 0.929 . S
H369 C378 0.929 . S
C370 H364 0.930 . S
C370 C371 1.367 . S
C370 C378 1.378 . S
C371 C370 1.367 . S
C371 C379 1.433 . S
C372 H368 0.929 . S
C372 C374 1.378 . S
C372 C376 1.350 . S
C373 C376 1.463 . S
C373 C378 1.350 . S
C373 N381 1.427 . S
C374 H365 0.930 . S
C374 C372 1.378 . S
C374 C375 1.367 . S
C375 C374 1.367 . S
C375 C377 1.433 . S
C376 C372 1.350 . S
C376 C373 1.463 . S
C376 N380 1.427 . S
C377 H367 0.929 . S
C377 C375 1.433 . S
C377 N380 1.384 . S
C378 H369 0.929 . S
C378 C370 1.378 . S
C378 C373 1.350 . S
C379 H366 0.929 . S
C379 C371 1.433 . S
C379 N381 1.384 . S
N380 C376 1.427 . S
N380 C377 1.384 . S
N381 C373 1.427 . S
N381 C379 1.384 . S
H382 C388 0.930 . S
H383 C392 0.930 . S
H384 C397 0.929 . S
H385 C395 0.929 . S
H386 C390 0.929 . S
H387 C396 0.929 . S
C388 H382 0.930 . S
C388 C389 1.367 . S
C388 C396 1.378 . S
C389 C388 1.367 . S
C389 C397 1.433 . S
C390 H386 0.929 . S
C390 C392 1.378 . S
C390 C394 1.350 . S
C391 C394 1.463 . S
C391 C396 1.350 . S
C391 N399 1.427 . S
C392 H383 0.930 . S
C392 C390 1.378 . S
C392 C393 1.367 . S
C393 C392 1.367 . S
C393 C395 1.433 . S
C394 C390 1.350 . S
C394 C391 1.463 . S
C394 N398 1.427 . S
C395 H385 0.929 . S
C395 C393 1.433 . S
C395 N398 1.384 . S
C396 H387 0.929 . S
C396 C388 1.378 . S
C396 C391 1.350 . S
C397 H384 0.929 . S
C397 C389 1.433 . S
C397 N399 1.384 . S
N398 C394 1.427 . S
N398 C395 1.384 . S
N399 C391 1.427 . S
N399 C397 1.384 . S
C119 C8 1.717 . S
C123 C64 1.720 . S
C137 C22 1.713 . S
C141 C78 1.715 . S
C155 C92 1.713 . S
C159 C36 1.714 . S
C173 C106 1.720 . S
C177 C50 1.714 . S
C191 C6 1.290 . S
C195 C34 1.288 . S
C209 C20 1.276 . S
C213 C48 1.278 . S
C227 C90 1.275 . S
C231 C62 1.274 . S
C245 C76 1.278 . S
C249 C104 1.280 . S
C263 C79 2.065 . S
C267 C9 2.060 . S
C281 C23 2.064 . S
C285 C93 2.068 . S
C299 C107 2.068 . S
C303 C37 2.064 . S
C317 C51 2.065 . S
C321 C65 2.060 . S
C335 C91 0.901 . S
C339 C49 0.893 . S
C353 C7 0.918 . S
C357 C105 0.928 . S
C371 C21 0.897 . S
C375 C63 0.893 . S
C389 C77 0.926 . S
C393 C35 0.929 . S
