# Generated by pormake.
# Topology dft, (4)-cn, num edge types: 1
# Building blocks:
#     Node 0, Type 0, BuildingBlock: AZAVOO_clean_sbu_0, # of connection points: 4
#     Node 1, Type 0, BuildingBlock: AZAVOO_clean_sbu_0, # of connection points: 4
#     Node 2, Type 0, BuildingBlock: AZAVOO_clean_sbu_0, # of connection points: 4
#     Node 3, Type 0, BuildingBlock: AZAVOO_clean_sbu_0, # of connection points: 4
#     Node 4, Type 0, BuildingBlock: AZAVOO_clean_sbu_0, # of connection points: 4
#     Node 5, Type 0, BuildingBlock: AZAVOO_clean_sbu_0, # of connection points: 4
#     Node 6, Type 0, BuildingBlock: AZAVOO_clean_sbu_0, # of connection points: 4
#     Node 7, Type 0, BuildingBlock: AZAVOO_clean_sbu_0, # of connection points: 4
#     Edge 8, Type (0, 0), None
#     Edge 9, Type (0, 0), None
#     Edge 10, Type (0, 0), None
#     Edge 11, Type (0, 0), None
#     Edge 12, Type (0, 0), None
#     Edge 13, Type (0, 0), None
#     Edge 14, Type (0, 0), None
#     Edge 15, Type (0, 0), None
#     Edge 16, Type (0, 0), None
#     Edge 17, Type (0, 0), None
#     Edge 18, Type (0, 0), None
#     Edge 19, Type (0, 0), None
#     Edge 20, Type (0, 0), None
#     Edge 21, Type (0, 0), None
#     Edge 22, Type (0, 0), None
#     Edge 23, Type (0, 0), None
# Relax obj value: 0.201
# Max RMSD: 0.170
# Mean RMSD: 0.165
data_MOF--net-dft--node1-AZAVOO_clean_sbu_0--edge1-none
_symmetry_space_group_name_H-M    P1
_symmetry_Int_Tables_number       1
_symmetry_cell_setting            triclinic
loop_
_symmetry_equiv_pos_as_xyz
'x, y, z'
_cell_length_a     15.962851
_cell_length_b     16.864721
_cell_length_c     17.237926
_cell_angle_alpha  90.001719
_cell_angle_beta   88.630132
_cell_angle_gamma 89.99405
loop_
_atom_site_label
_atom_site_type_symbol
_atom_site_fract_x
_atom_site_fract_y
_atom_site_fract_z
_atom_type_partial_charge
Mg0 Mg 0.27831 0.00206 0.16131 0.0
O1 O 0.25893 0.01415 0.03015 0.0
O2 O 0.12188 0.03581 0.0171 0.0
Mg3 Mg 0.05713 0.02667 0.13593 0.0
C4 C 0.19612 0.03086 -0.0113 0.0
C5 C 0.45192 0.03537 0.211 0.0
O6 O 0.40502 0.02937 0.27437 0.0
O7 O 0.25585 0.13327 0.16639 0.0
O8 O 0.11667 0.14823 0.16395 0.0
O9 O 0.25898 0.8702 0.16503 0.0
O10 O 0.1581 0.95673 0.18398 0.0
C11 C 0.19052 0.17649 0.16933 0.0
C12 C 0.18056 0.88357 0.18122 0.0
O13 O 0.41854 0.02466 0.14567 0.0
Mg14 Mg 0.99104 0.33006 0.65478 0.0
O15 O 0.10229 0.25983 0.70754 0.0
O16 O 0.21754 0.31582 0.65425 0.0
Mg17 Mg 0.18271 0.39747 0.55399 0.0
C18 C 0.18222 0.2667 0.7009 0.0
C19 C 0.8546 0.26158 0.79279 0.0
O20 O 0.79721 0.28642 0.84297 0.0
O21 O 0.02291 0.44866 0.71137 0.0
O22 O 0.12414 0.4933 0.63176 0.0
O23 O 0.97124 0.23947 0.55791 0.0
O24 O 0.06014 0.3384 0.5533 0.0
C25 C 0.06972 0.50458 0.686 0.0
C26 C 0.02663 0.27982 0.51876 0.0
O27 O 0.89622 0.31274 0.75425 0.0
Mg28 Mg 0.7222 0.09008 0.19557 0.0
O29 O 0.77581 0.06904 0.07247 0.0
O30 O 0.91123 0.042 0.09132 0.0
Mg31 Mg 0.94452 0.05453 0.22049 0.0
C32 C 0.84839 0.04785 0.04724 0.0
C33 C 0.5413 0.05333 0.21773 0.0
O34 O 0.57442 0.05354 0.28675 0.0
O35 O 0.73761 0.95863 0.21032 0.0
O36 O 0.87256 0.93702 0.23563 0.0
O37 O 0.74654 0.2224 0.19566 0.0
O38 O 0.83661 0.13177 0.23098 0.0
C39 C 0.798 0.91241 0.22583 0.0
C40 C 0.82051 0.20538 0.21998 0.0
O41 O 0.5876 0.06956 0.15888 0.0
Mg42 Mg 0.1051 0.76043 0.64109 0.0
O43 O 0.00681 0.83022 0.71987 0.0
O44 O 0.88435 0.77294 0.69109 0.0
Mg45 Mg 0.8971 0.69105 0.5859 0.0
C46 C 0.92703 0.82244 0.72995 0.0
C47 C 0.27498 0.82739 0.73422 0.0
O48 O 0.34234 0.80342 0.76974 0.0
O49 O 0.08735 0.64163 0.7035 0.0
O50 O 0.97193 0.5963 0.64871 0.0
O51 O 0.10343 0.85096 0.54208 0.0
O52 O 0.01463 0.75316 0.55911 0.0
C53 C 0.03654 0.58548 0.68947 0.0
C54 C 0.04042 0.81101 0.51712 0.0
O55 O 0.22348 0.77559 0.71148 0.0
Mg56 Mg 0.33534 0.09 0.75736 0.0
O57 O 0.28174 0.06898 0.88046 0.0
O58 O 0.14633 0.0419 0.8616 0.0
Mg59 Mg 0.11304 0.05442 0.73244 0.0
C60 C 0.20917 0.04777 0.90569 0.0
C61 C 0.51626 0.05328 0.73521 0.0
O62 O 0.48313 0.05348 0.66619 0.0
O63 O 0.31997 0.95855 0.74262 0.0
O64 O 0.18503 0.93692 0.7173 0.0
O65 O 0.31098 0.22232 0.75726 0.0
O66 O 0.22092 0.13167 0.72195 0.0
C67 C 0.2596 0.91232 0.72709 0.0
C68 C 0.23702 0.20528 0.73291 0.0
O69 O 0.46994 0.06951 0.79406 0.0
Mg70 Mg 0.06647 0.33006 0.29816 0.0
O71 O 0.95523 0.25989 0.24537 0.0
O72 O 0.83997 0.31591 0.29865 0.0
Mg73 Mg 0.87481 0.39752 0.39893 0.0
C74 C 0.8753 0.26681 0.25198 0.0
C75 C 0.20291 0.26157 0.16012 0.0
O76 O 0.2603 0.28643 0.10996 0.0
O77 O 0.03463 0.44868 0.24159 0.0
O78 O 0.9334 0.49335 0.32119 0.0
O79 O 0.08626 0.23944 0.39499 0.0
O80 O 0.99737 0.33843 0.39963 0.0
C81 C 0.98784 0.50462 0.26696 0.0
C82 C 0.0309 0.27984 0.43414 0.0
O83 O 0.16129 0.31272 0.19869 0.0
Mg84 Mg 0.77927 0.00208 0.79163 0.0
O85 O 0.79864 0.01421 0.92279 0.0
O86 O 0.93568 0.03588 0.93583 0.0
Mg87 Mg 1.00043 0.02671 0.81701 0.0
C88 C 0.86144 0.03093 0.96424 0.0
C89 C 0.60564 0.03534 0.74194 0.0
O90 O 0.65254 0.02933 0.67857 0.0
O91 O 0.80168 0.1333 0.7865 0.0
O92 O 0.94086 0.14826 0.78897 0.0
O93 O 0.79862 0.87021 0.78795 0.0
O94 O 0.89949 0.95677 0.76894 0.0
C95 C 0.86701 0.1765 0.78353 0.0
C96 C 0.87702 0.88362 0.77172 0.0
O97 O 0.63903 0.02466 0.80727 0.0
Mg98 Mg 0.95251 0.76048 0.31191 0.0
O99 O 0.05079 0.83023 0.2331 0.0
O100 O 0.17326 0.7729 0.26183 0.0
Mg101 Mg 0.16052 0.69102 0.36703 0.0
C102 C 0.13056 0.8224 0.22298 0.0
C103 C 0.78262 0.82748 0.21877 0.0
O104 O 0.71524 0.80349 0.1833 0.0
O105 O 0.97023 0.64168 0.24948 0.0
O106 O 0.08566 0.5963 0.30424 0.0
O107 O 0.95421 0.85101 0.41092 0.0
O108 O 0.04302 0.75317 0.39386 0.0
C109 C 0.02103 0.5855 0.26349 0.0
C110 C 0.01719 0.81102 0.43585 0.0
O111 O 0.83411 0.77568 0.24156 0.0
loop_
_geom_bond_atom_site_label_1
_geom_bond_atom_site_label_2
_geom_bond_distance
_geom_bond_site_symmetry_2
_ccdc_geom_bond_type
Mg0 O1 2.028 . S
Mg0 O7 1.986 . S
Mg0 O9 2.114 1_545 S
Mg0 O10 2.251 1_545 S
Mg0 O13 2.010 . S
O1 Mg0 2.028 . S
O1 C4 1.250 . S
O2 Mg3 2.028 . S
O2 C4 1.248 . S
Mg3 O2 2.028 . S
Mg3 O8 2.032 . S
Mg3 O10 2.079 1_545 S
C4 O1 1.250 . S
C4 O2 1.248 . S
C5 O6 1.264 . S
C5 O13 1.249 . S
O6 C5 1.264 . S
O7 Mg0 1.986 . S
O7 C11 1.246 . S
O8 Mg3 2.032 . S
O8 C11 1.259 . S
O9 Mg0 2.114 1_565 S
O9 C12 1.252 . S
O10 Mg0 2.251 1_565 S
O10 Mg3 2.079 1_565 S
O10 C12 1.273 . S
C11 O7 1.246 . S
C11 O8 1.259 . S
C12 O9 1.252 . S
C12 O10 1.273 . S
O13 Mg0 2.010 . S
O13 C5 1.249 . S
Mg14 O15 2.028 1_655 S
Mg14 O21 1.986 1_655 S
Mg14 O23 2.114 . S
Mg14 O24 2.251 1_655 S
Mg14 O27 2.010 . S
O15 Mg14 2.028 1_455 S
O15 C18 1.250 . S
O16 Mg17 2.028 . S
O16 C18 1.248 . S
Mg17 O16 2.028 . S
Mg17 O22 2.032 . S
Mg17 O24 2.079 . S
C18 O15 1.250 . S
C18 O16 1.248 . S
C19 O20 1.264 . S
C19 O27 1.249 . S
O20 C19 1.264 . S
O21 Mg14 1.986 1_455 S
O21 C25 1.246 . S
O22 Mg17 2.032 . S
O22 C25 1.259 . S
O23 Mg14 2.114 . S
O23 C26 1.252 1_655 S
O24 Mg14 2.251 1_455 S
O24 Mg17 2.079 . S
O24 C26 1.273 . S
C25 O21 1.246 . S
C25 O22 1.259 . S
C26 O23 1.252 1_455 S
C26 O24 1.273 . S
O27 Mg14 2.010 . S
O27 C19 1.249 . S
Mg28 O29 2.028 . S
Mg28 O35 1.986 1_545 S
Mg28 O37 2.114 . S
Mg28 O38 2.251 . S
Mg28 O41 2.010 . S
O29 Mg28 2.028 . S
O29 C32 1.250 . S
O30 Mg31 2.028 . S
O30 C32 1.248 . S
Mg31 O30 2.028 . S
Mg31 O36 2.032 1_545 S
Mg31 O38 2.079 . S
C32 O29 1.250 . S
C32 O30 1.248 . S
C33 O34 1.264 . S
C33 O41 1.249 . S
O34 C33 1.264 . S
O35 Mg28 1.986 1_565 S
O35 C39 1.246 . S
O36 Mg31 2.032 1_565 S
O36 C39 1.259 . S
O37 Mg28 2.114 . S
O37 C40 1.252 . S
O38 Mg28 2.251 . S
O38 Mg31 2.079 . S
O38 C40 1.273 . S
C39 O35 1.246 . S
C39 O36 1.259 . S
C40 O37 1.252 . S
C40 O38 1.273 . S
O41 Mg28 2.010 . S
O41 C33 1.249 . S
Mg42 O43 2.028 1_455 S
Mg42 O49 1.986 . S
Mg42 O51 2.114 . S
Mg42 O52 2.251 1_455 S
Mg42 O55 2.010 . S
O43 Mg42 2.028 1_655 S
O43 C46 1.250 . S
O44 Mg45 2.028 . S
O44 C46 1.248 . S
Mg45 O44 2.028 . S
Mg45 O50 2.032 . S
Mg45 O52 2.079 . S
C46 O43 1.250 . S
C46 O44 1.248 . S
C47 O48 1.264 . S
C47 O55 1.249 . S
O48 C47 1.264 . S
O49 Mg42 1.986 . S
O49 C53 1.246 . S
O50 Mg45 2.032 . S
O50 C53 1.259 1_655 S
O51 Mg42 2.114 . S
O51 C54 1.252 . S
O52 Mg42 2.251 1_655 S
O52 Mg45 2.079 . S
O52 C54 1.273 1_655 S
C53 O49 1.246 . S
C53 O50 1.259 1_455 S
C54 O51 1.252 . S
C54 O52 1.273 1_455 S
O55 Mg42 2.010 . S
O55 C47 1.249 . S
Mg56 O57 2.028 . S
Mg56 O63 1.986 1_545 S
Mg56 O65 2.114 . S
Mg56 O66 2.251 . S
Mg56 O69 2.010 . S
O57 Mg56 2.028 . S
O57 C60 1.250 . S
O58 Mg59 2.028 . S
O58 C60 1.248 . S
Mg59 O58 2.028 . S
Mg59 O64 2.032 1_545 S
Mg59 O66 2.079 . S
C60 O57 1.250 . S
C60 O58 1.248 . S
C61 O62 1.264 . S
C61 O69 1.249 . S
O62 C61 1.264 . S
O63 Mg56 1.986 1_565 S
O63 C67 1.246 . S
O64 Mg59 2.032 1_565 S
O64 C67 1.259 . S
O65 Mg56 2.114 . S
O65 C68 1.252 . S
O66 Mg56 2.251 . S
O66 Mg59 2.079 . S
O66 C68 1.273 . S
C67 O63 1.246 . S
C67 O64 1.259 . S
C68 O65 1.252 . S
C68 O66 1.273 . S
O69 Mg56 2.010 . S
O69 C61 1.249 . S
Mg70 O71 2.028 1_455 S
Mg70 O77 1.986 . S
Mg70 O79 2.114 . S
Mg70 O80 2.251 1_455 S
Mg70 O83 2.010 . S
O71 Mg70 2.028 1_655 S
O71 C74 1.250 . S
O72 Mg73 2.028 . S
O72 C74 1.248 . S
Mg73 O72 2.028 . S
Mg73 O78 2.032 . S
Mg73 O80 2.079 . S
C74 O71 1.250 . S
C74 O72 1.248 . S
C75 O76 1.264 . S
C75 O83 1.249 . S
O76 C75 1.264 . S
O77 Mg70 1.986 . S
O77 C81 1.246 . S
O78 Mg73 2.032 . S
O78 C81 1.259 1_655 S
O79 Mg70 2.114 . S
O79 C82 1.252 . S
O80 Mg70 2.251 1_655 S
O80 Mg73 2.079 . S
O80 C82 1.273 1_655 S
C81 O77 1.246 . S
C81 O78 1.259 1_455 S
C82 O79 1.252 . S
C82 O80 1.273 1_455 S
O83 Mg70 2.010 . S
O83 C75 1.249 . S
Mg84 O85 2.028 . S
Mg84 O91 1.986 . S
Mg84 O93 2.114 1_545 S
Mg84 O94 2.251 1_545 S
Mg84 O97 2.010 . S
O85 Mg84 2.028 . S
O85 C88 1.250 . S
O86 Mg87 2.028 . S
O86 C88 1.248 . S
Mg87 O86 2.028 . S
Mg87 O92 2.032 . S
Mg87 O94 2.079 1_545 S
C88 O85 1.250 . S
C88 O86 1.248 . S
C89 O90 1.264 . S
C89 O97 1.249 . S
O90 C89 1.264 . S
O91 Mg84 1.986 . S
O91 C95 1.246 . S
O92 Mg87 2.032 . S
O92 C95 1.259 . S
O93 Mg84 2.114 1_565 S
O93 C96 1.252 . S
O94 Mg84 2.251 1_565 S
O94 Mg87 2.079 1_565 S
O94 C96 1.273 . S
C95 O91 1.246 . S
C95 O92 1.259 . S
C96 O93 1.252 . S
C96 O94 1.273 . S
O97 Mg84 2.010 . S
O97 C89 1.249 . S
Mg98 O99 2.028 1_655 S
Mg98 O105 1.986 1_655 S
Mg98 O107 2.114 . S
Mg98 O108 2.251 1_655 S
Mg98 O111 2.010 . S
O99 Mg98 2.028 1_455 S
O99 C102 1.250 . S
O100 Mg101 2.028 . S
O100 C102 1.248 . S
Mg101 O100 2.028 . S
Mg101 O106 2.032 . S
Mg101 O108 2.079 . S
C102 O99 1.250 . S
C102 O100 1.248 . S
C103 O104 1.264 . S
C103 O111 1.249 . S
O104 C103 1.264 . S
O105 Mg98 1.986 1_455 S
O105 C109 1.246 . S
O106 Mg101 2.032 . S
O106 C109 1.259 . S
O107 Mg98 2.114 . S
O107 C110 1.252 1_655 S
O108 Mg98 2.251 1_455 S
O108 Mg101 2.079 . S
O108 C110 1.273 . S
C109 O105 1.246 . S
C109 O106 1.259 . S
C110 O107 1.252 1_455 S
C110 O108 1.273 . S
O111 Mg98 2.010 . S
O111 C103 1.249 . S
C4 C60 1.546 1_554 S
C26 C82 1.675 . S
C88 C32 1.546 1_556 S
C110 C54 1.674 . S
C5 C33 0.900 . S
C25 C53 1.292 . S
C89 C61 0.899 . S
C81 C109 1.293 . S
C75 C11 1.205 . S
C19 C95 1.205 . S
C103 C39 1.205 . S
C47 C67 1.205 . S
C96 C46 1.588 . S
C12 C102 1.588 . S
C18 C68 1.588 . S
C74 C40 1.588 . S
