# Generated by pormake.
# Topology dft, (4)-cn, num edge types: 1
# Building blocks:
#     Node 0, Type 0, BuildingBlock: TATPOV_clean_sbu_0, # of connection points: 4
#     Node 1, Type 0, BuildingBlock: TATPOV_clean_sbu_0, # of connection points: 4
#     Node 2, Type 0, BuildingBlock: TATPOV_clean_sbu_0, # of connection points: 4
#     Node 3, Type 0, BuildingBlock: TATPOV_clean_sbu_0, # of connection points: 4
#     Node 4, Type 0, BuildingBlock: TATPOV_clean_sbu_0, # of connection points: 4
#     Node 5, Type 0, BuildingBlock: TATPOV_clean_sbu_0, # of connection points: 4
#     Node 6, Type 0, BuildingBlock: TATPOV_clean_sbu_0, # of connection points: 4
#     Node 7, Type 0, BuildingBlock: TATPOV_clean_sbu_0, # of connection points: 4
#     Edge 8, Type (0, 0), BuildingBlock: KIFKEQ_clean_linker_1, # of connection points: 2
#     Edge 9, Type (0, 0), BuildingBlock: KIFKEQ_clean_linker_1, # of connection points: 2
#     Edge 10, Type (0, 0), BuildingBlock: KIFKEQ_clean_linker_1, # of connection points: 2
#     Edge 11, Type (0, 0), BuildingBlock: KIFKEQ_clean_linker_1, # of connection points: 2
#     Edge 12, Type (0, 0), BuildingBlock: KIFKEQ_clean_linker_1, # of connection points: 2
#     Edge 13, Type (0, 0), BuildingBlock: KIFKEQ_clean_linker_1, # of connection points: 2
#     Edge 14, Type (0, 0), BuildingBlock: KIFKEQ_clean_linker_1, # of connection points: 2
#     Edge 15, Type (0, 0), BuildingBlock: KIFKEQ_clean_linker_1, # of connection points: 2
#     Edge 16, Type (0, 0), BuildingBlock: KIFKEQ_clean_linker_1, # of connection points: 2
#     Edge 17, Type (0, 0), BuildingBlock: KIFKEQ_clean_linker_1, # of connection points: 2
#     Edge 18, Type (0, 0), BuildingBlock: KIFKEQ_clean_linker_1, # of connection points: 2
#     Edge 19, Type (0, 0), BuildingBlock: KIFKEQ_clean_linker_1, # of connection points: 2
#     Edge 20, Type (0, 0), BuildingBlock: KIFKEQ_clean_linker_1, # of connection points: 2
#     Edge 21, Type (0, 0), BuildingBlock: KIFKEQ_clean_linker_1, # of connection points: 2
#     Edge 22, Type (0, 0), BuildingBlock: KIFKEQ_clean_linker_1, # of connection points: 2
#     Edge 23, Type (0, 0), BuildingBlock: KIFKEQ_clean_linker_1, # of connection points: 2
# Relax obj value: 0.142
# Max RMSD: 0.144
# Mean RMSD: 0.144
data_MOF--net-dft--node1-TATPOV_clean_sbu_0--edge1-KIFKEQ_clean_linker_1
_symmetry_space_group_name_H-M    P1
_symmetry_Int_Tables_number       1
_symmetry_cell_setting            triclinic
loop_
_symmetry_equiv_pos_as_xyz
'x, y, z'
_cell_length_a     34.536897
_cell_length_b     34.435763
_cell_length_c     41.965926
_cell_angle_alpha  90.052118
_cell_angle_beta   89.74042
_cell_angle_gamma 90.14576
loop_
_atom_site_label
_atom_site_type_symbol
_atom_site_fract_x
_atom_site_fract_y
_atom_site_fract_z
_atom_type_partial_charge
Zn0 Zn 0.23269 0.97648 0.17332 0.0
Zn1 Zn 0.30494 0.97998 0.19232 0.0
O2 O 0.28604 0.93241 0.21778 0.0
O3 O 0.22358 0.93613 0.20734 0.0
O4 O 0.36058 0.98779 0.20451 0.0
O5 O 0.24897 0.95967 0.12976 0.0
O6 O 0.30931 0.97096 0.14362 0.0
C7 C 0.25148 0.92044 0.22191 0.0
C8 C 0.24909 0.04911 0.20052 0.0
O9 O 0.28012 0.03127 0.20767 0.0
O10 O 0.22407 0.03309 0.18294 0.0
C11 C 0.38373 0.96098 0.21263 0.0
O12 O 0.37109 0.92502 0.21431 0.0
C13 C 0.28453 0.96147 0.12258 0.0
Zn14 Zn 0.02957 0.22445 0.63794 0.0
Zn15 Zn 0.01839 0.28595 0.67625 0.0
O16 O 0.06357 0.25839 0.69903 0.0
O17 O 0.07107 0.20713 0.66808 0.0
O18 O 0.00759 0.33488 0.70105 0.0
O19 O 0.04475 0.25909 0.60173 0.0
O20 O 0.02986 0.30925 0.6319 0.0
C21 C 0.08083 0.22667 0.69234 0.0
C22 C 0.95324 0.22652 0.66508 0.0
O23 O 0.96745 0.2557 0.67959 0.0
O24 O 0.97339 0.20836 0.64466 0.0
C25 C 0.97635 0.35212 0.69371 0.0
O26 O 0.95332 0.33586 0.67269 0.0
C27 C 0.04103 0.29535 0.60531 0.0
Zn28 Zn 0.79558 0.03249 0.11507 0.0
Zn29 Zn 0.73279 0.01706 0.15 0.0
O30 O 0.75704 0.06257 0.1751 0.0
O31 O 0.80862 0.0752 0.14575 0.0
O32 O 0.68398 0.00255 0.17344 0.0
O33 O 0.76302 0.04577 0.0776 0.0
O34 O 0.71098 0.03164 0.1058 0.0
C35 C 0.78749 0.08258 0.16972 0.0
C36 C 0.79686 0.9558 0.14065 0.0
O37 O 0.76498 0.96704 0.15292 0.0
O38 O 0.81563 0.97824 0.12231 0.0
C39 C 0.66424 0.02554 0.19071 0.0
O40 O 0.67674 0.06116 0.19533 0.0
C41 C 0.7266 0.0431 0.07991 0.0
Zn42 Zn 0.96894 0.78067 0.65212 0.0
Zn43 Zn 0.96681 0.71128 0.67617 0.0
O44 O 0.92566 0.73896 0.70402 0.0
O45 O 0.9371 0.79927 0.68908 0.0
O46 O 0.96971 0.65673 0.69285 0.0
O47 O 0.94277 0.76244 0.6123 0.0
O48 O 0.95194 0.70261 0.62901 0.0
C49 C 0.91995 0.77532 0.70714 0.0
C50 C 0.04239 0.75936 0.67362 0.0
O51 O 0.02218 0.73122 0.6844 0.0
O52 O 0.02695 0.78408 0.6554 0.0
C53 C 0.94138 0.63766 0.70434 0.0
O54 O 0.90726 0.65426 0.70657 0.0
C55 C 0.94104 0.72623 0.60754 0.0
Zn56 Zn 0.2103 0.96325 0.85512 0.0
Zn57 Zn 0.27658 0.96779 0.8213 0.0
O58 O 0.25076 0.02015 0.81221 0.0
O59 O 0.19684 0.01762 0.84032 0.0
O60 O 0.32614 0.97033 0.79636 0.0
O61 O 0.24139 0.95496 0.89475 0.0
O62 O 0.29583 0.96049 0.86737 0.0
C63 C 0.21929 0.0358 0.82155 0.0
C64 C 0.21654 0.90414 0.80711 0.0
O65 O 0.24861 0.92107 0.80122 0.0
O66 O 0.1947 0.91654 0.82918 0.0
C67 C 0.34779 0.94057 0.79564 0.0
O68 O 0.33669 0.90905 0.81082 0.0
C69 C 0.27799 0.95532 0.89362 0.0
Zn70 Zn 0.01904 0.23221 0.35392 0.0
Zn71 Zn 0.01874 0.29513 0.31621 0.0
O72 O 0.96827 0.26694 0.30426 0.0
O73 O 0.97044 0.21309 0.33243 0.0
O74 O 0.01876 0.34437 0.29047 0.0
O75 O 0.01369 0.26622 0.39241 0.0
O76 O 0.0216 0.31754 0.36171 0.0
C77 C 0.95354 0.23436 0.31222 0.0
C78 C 0.08515 0.23709 0.31187 0.0
O79 O 0.06688 0.26604 0.30064 0.0
O80 O 0.07216 0.21892 0.33589 0.0
C81 C 0.98749 0.3622 0.28441 0.0
O82 O 0.95436 0.34659 0.29313 0.0
C83 C 0.01734 0.30254 0.38919 0.0
Zn84 Zn 0.75192 0.04142 0.8282 0.0
Zn85 Zn 0.68941 0.02207 0.79523 0.0
O86 O 0.7193 0.9707 0.79491 0.0
O87 O 0.76834 0.98496 0.8262 0.0
O88 O 0.63875 0.01112 0.77374 0.0
O89 O 0.7203 0.06122 0.86455 0.0
O90 O 0.66917 0.03785 0.8399 0.0
C91 C 0.74999 0.96052 0.80939 0.0
C92 C 0.7466 0.08314 0.76985 0.0
O93 O 0.7152 0.06401 0.76682 0.0
O94 O 0.76799 0.07836 0.79388 0.0
C95 C 0.62781 0.9792 0.76148 0.0
O96 O 0.6521 0.94996 0.75993 0.0
C97 C 0.68438 0.05426 0.86397 0.0
Zn98 Zn 0.99405 0.79046 0.33497 0.0
Zn99 Zn 0.98975 0.72093 0.31261 0.0
O100 O 0.04822 0.73378 0.30813 0.0
O101 O 0.05196 0.7871 0.33687 0.0
O102 O 0.98483 0.66568 0.29806 0.0
O103 O 0.96268 0.77756 0.3736 0.0
O104 O 0.96863 0.71669 0.35875 0.0
C105 C 0.06841 0.76048 0.32109 0.0
C106 C 0.95234 0.78743 0.27661 0.0
O107 O 0.95547 0.75098 0.281 0.0
O108 O 0.9685 0.81102 0.29552 0.0
C109 C 0.00363 0.64984 0.27546 0.0
O110 O 0.02894 0.67042 0.25918 0.0
C111 C 0.95772 0.74182 0.37919 0.0
H112 H 0.24582 0.91758 0.07985 0.0
H113 H 0.34946 0.98678 0.09046 0.0
H114 H 0.25909 0.91018 0.02355 0.0
H115 H 0.36309 0.97918 0.03326 0.0
H116 H 0.31464 0.01045 0.92843 0.0
H117 H 0.32922 0.0057 0.9853 0.0
H118 H 0.30162 0.88325 0.98287 0.0
H119 H 0.28574 0.88866 0.92639 0.0
C120 C 0.27187 0.93071 0.07017 0.0
C121 C 0.29634 0.95315 0.08945 0.0
C122 C 0.27978 0.92607 0.03788 0.0
C123 C 0.31228 0.94396 0.02391 0.0
C124 C 0.33782 0.96509 0.04341 0.0
C125 C 0.33009 0.96936 0.07607 0.0
C126 C 0.31335 0.9823 0.93991 0.0
C127 C 0.29907 0.94992 0.92344 0.0
C128 C 0.32174 0.97949 0.97241 0.0
C129 C 0.31584 0.94423 0.98867 0.0
C130 C 0.30576 0.91094 0.97109 0.0
C131 C 0.29694 0.9139 0.93879 0.0
H132 H 0.99441 0.35479 0.58685 0.0
H133 H 0.09665 0.29067 0.56 0.0
H134 H 0.98947 0.37988 0.53237 0.0
H135 H 0.09243 0.31628 0.50615 0.0
H136 H 0.9624 0.30701 0.43468 0.0
H137 H 0.97193 0.32894 0.48923 0.0
H138 H 0.08602 0.3709 0.46412 0.0
H139 H 0.07574 0.34969 0.40893 0.0
C140 C 0.01688 0.34768 0.56973 0.0
C141 C 0.04551 0.32035 0.5772 0.0
C142 C 0.01407 0.36203 0.53864 0.0
C143 C 0.04035 0.34973 0.51503 0.0
C144 C 0.07192 0.32652 0.52385 0.0
C145 C 0.0742 0.31155 0.55461 0.0
C146 C 0.98869 0.32265 0.44054 0.0
C147 C 0.01846 0.32653 0.418 0.0
C148 C 0.99411 0.33549 0.47169 0.0
C149 C 0.02986 0.35139 0.48093 0.0
C150 C 0.05819 0.35883 0.45752 0.0
C151 C 0.05234 0.34673 0.42605 0.0
H152 H 0.67167 0.12212 0.89477 0.0
H153 H 0.65077 -0.00112 0.90028 0.0
H154 H 0.66141 0.12785 0.95212 0.0
H155 H 0.64303 0.00383 0.95783 0.0
H156 H 0.65538 0.01443 0.06227 0.0
H157 H 0.62305 0.02508 0.01096 0.0
H158 H 0.7135 0.10614 0.98446 0.0
H159 H 0.74484 0.09576 0.03492 0.0
C160 C 0.66311 0.09658 0.90815 0.0
C161 C 0.66242 0.06004 0.8935 0.0
C162 C 0.65755 0.09971 0.941 0.0
C163 C 0.65304 0.06608 0.95969 0.0
C164 C 0.64667 0.03033 0.94426 0.0
C165 C 0.65116 0.0274 0.91122 0.0
C166 C 0.66754 0.03523 0.04564 0.0
C167 C 0.70297 0.05368 0.05213 0.0
C168 C 0.64911 0.04132 0.01634 0.0
C169 C 0.66563 0.0664 -0.0065 0.0
C170 C 0.6994 0.08708 0.00146 0.0
C171 C 0.71785 0.08069 0.0303 0.0
H172 H 0.92206 0.7877 0.4228 0.0
H173 H 0.95862 0.66935 0.40675 0.0
H174 H 0.90714 0.77252 0.47755 0.0
H175 H 0.94236 0.65351 0.46211 0.0
H176 H 0.9793 0.67477 0.56979 0.0
H177 H 0.97233 0.66895 0.51213 0.0
H178 H 0.86979 0.74066 0.51635 0.0
H179 H 0.87859 0.74838 0.57361 0.0
C180 C 0.92607 0.75808 0.43082 0.0
C181 C 0.94217 0.72992 0.41058 0.0
C182 C 0.91701 0.74916 0.46229 0.0
C183 C 0.92361 0.71171 0.47444 0.0
C184 C 0.93734 0.68274 0.45361 0.0
C185 C 0.94646 0.69175 0.42188 0.0
C186 C 0.9546 0.68814 0.55839 0.0
C187 C 0.92985 0.71254 0.57576 0.0
C188 C 0.95045 0.68475 0.52535 0.0
C189 C 0.92108 0.70527 0.50944 0.0
C190 C 0.89346 0.72553 0.5277 0.0
C191 C 0.89825 0.72974 0.56049 0.0
H192 H 0.44222 0.91104 0.22851 0.0
H193 H 0.41926 0.03146 0.20681 0.0
H194 H 0.51144 0.9253 0.23069 0.0
H195 H 0.48813 0.04539 0.20808 0.0
H196 H 0.61291 0.06752 0.22673 0.0
H197 H 0.54591 0.05069 0.23935 0.0
H198 H 0.56035 0.94034 0.19167 0.0
H199 H 0.62735 0.95659 0.17994 0.0
C200 C 0.45188 0.94058 0.22445 0.0
C201 C 0.42525 0.97001 0.21716 0.0
C202 C 0.49156 0.94872 0.22557 0.0
C203 C 0.50541 0.98644 0.21935 0.0
C204 C 0.47855 0.01613 0.21341 0.0
C205 C 0.43897 0.00804 0.21241 0.0
C206 C 0.60193 0.03942 0.21941 0.0
C207 C 0.62533 0.01362 0.20198 0.0
C208 C 0.56348 0.02985 0.2265 0.0
C209 C 0.54759 0.99434 0.21622 0.0
C210 C 0.57166 0.96776 0.20025 0.0
C211 C 0.61009 0.97724 0.1933 0.0
H212 H 0.91182 0.39519 0.68269 0.0
H213 H 0.02283 0.39958 0.72968 0.0
H214 H 0.90262 0.46389 0.69306 0.0
H215 H 0.01315 0.46855 0.74078 0.0
H216 H 0.00772 0.59497 0.70104 0.0
H217 H 0.01436 0.52514 0.70653 0.0
H218 H 0.89304 0.51587 0.73104 0.0
H219 H 0.88611 0.586 0.72479 0.0
C220 C 0.93395 0.41065 0.69583 0.0
C221 C 0.96834 0.39205 0.70491 0.0
C222 C 0.9285 0.45007 0.70203 0.0
C223 C 0.9573 0.47184 0.71751 0.0
C224 C 0.99068 0.45269 0.72836 0.0
C225 C 0.99614 0.41315 0.72215 0.0
C226 C 0.98251 0.57818 0.708 0.0
C227 C 0.94623 0.59601 0.71198 0.0
C228 C 0.98642 0.53809 0.71145 0.0
C229 C 0.95417 0.51484 0.71903 0.0
C230 C 0.91832 0.53292 0.72473 0.0
C231 C 0.91438 0.57312 0.72125 0.0
H232 H 0.59097 0.91209 0.74333 0.0
H233 H 0.57032 0.03309 0.76481 0.0
H234 H 0.52121 0.90051 0.74214 0.0
H235 H 0.50122 0.02135 0.76473 0.0
H236 H 0.37657 0.9975 0.75679 0.0
H237 H 0.44307 0.00502 0.73804 0.0
H238 H 0.47346 0.89673 0.78347 0.0
H239 H 0.40684 0.88857 0.80108 0.0
C240 C 0.5716 0.93633 0.74727 0.0
C241 C 0.58621 0.97335 0.7547 0.0
C242 C 0.53163 0.92964 0.7468 0.0
C243 C 0.50556 0.95984 0.75382 0.0
C244 C 0.52028 0.99741 0.75894 0.0
C245 C 0.56009 0.00411 0.75926 0.0
C246 C 0.39736 0.97501 0.7623 0.0
C247 C 0.38663 0.94275 0.78085 0.0
C248 C 0.43549 0.97936 0.75163 0.0
C249 C 0.4638 0.95176 0.75959 0.0
C250 C 0.45244 0.91838 0.77657 0.0
C251 C 0.41423 0.91385 0.78694 0.0
H252 H 0.9264 0.40919 0.27004 0.0
H253 H 0.05147 0.40708 0.27276 0.0
H254 H 0.92819 0.47888 0.26006 0.0
H255 H 0.05318 0.47683 0.26353 0.0
H256 H 0.04576 0.60303 0.23531 0.0
H257 H 0.03996 0.53259 0.22903 0.0
H258 H 0.94433 0.53181 0.29579 0.0
H259 H 0.94962 0.60166 0.30162 0.0
C260 C 0.95429 0.42346 0.26804 0.0
C261 C 0.98876 0.40272 0.27275 0.0
C262 C 0.9553 0.46342 0.26245 0.0
C263 C 0.9908 0.48349 0.26154 0.0
C264 C 0.02536 0.46225 0.26394 0.0
C265 C 0.02435 0.42225 0.26943 0.0
C266 C 0.02318 0.58781 0.24827 0.0
C267 C -0.00162 0.60788 0.26918 0.0
C268 C 0.01996 0.54749 0.24476 0.0
C269 C 0.99171 0.5266 0.26191 0.0
C270 C 0.96603 0.54701 0.28183 0.0
C271 C 0.96933 0.58711 0.28542 0.0
H272 H 0.09266 0.22683 0.2483 0.0
H273 H 0.1528 0.21109 0.33708 0.0
H274 H 0.14107 0.1885 0.22091 0.0
H275 H 0.20403 0.17591 0.30944 0.0
H276 H 0.22669 0.11659 0.17266 0.0
H277 H 0.19791 0.1726 0.19911 0.0
H278 H 0.2151 0.11641 0.29036 0.0
H279 H 0.24731 0.06306 0.26371 0.0
C280 C 0.11726 0.21631 0.26168 0.0
C281 C 0.1189 0.22139 0.29475 0.0
C282 C 0.14546 0.19443 0.24594 0.0
C283 C 0.17672 0.17811 0.26281 0.0
C284 C 0.17988 0.18646 0.29562 0.0
C285 C 0.15082 0.2071 0.31152 0.0
C286 C 0.22535 0.11722 0.19846 0.0
C287 C 0.23908 0.08582 0.21627 0.0
C288 C 0.20827 0.14899 0.21373 0.0
C289 C 0.20282 0.14908 0.24708 0.0
C290 C 0.21886 0.11829 0.26482 0.0
C291 C 0.23728 0.08733 0.24957 0.0
H292 H 0.91095 0.24432 0.71802 0.0
H293 H 0.90711 0.17659 0.63141 0.0
H294 H 0.8513 0.21422 0.73597 0.0
H295 H 0.84593 0.14775 0.64854 0.0
H296 H 0.78524 0.0603 0.71745 0.0
H297 H 0.82841 0.10059 0.68563 0.0
H298 H 0.78502 0.20296 0.73377 0.0
H299 H 0.74357 0.16168 0.76689 0.0
C300 C 0.89679 0.22366 0.70242 0.0
C301 C 0.91411 0.21229 0.67358 0.0
C302 C 0.86219 0.20659 0.71257 0.0
C303 C 0.84366 0.17816 0.69386 0.0
C304 C 0.85973 0.16883 0.66394 0.0
C305 C 0.89476 0.18545 0.65404 0.0
C306 C 0.784 0.09157 0.72024 0.0
C307 C 0.76116 0.10812 0.74428 0.0
C308 C 0.80874 0.11483 0.70201 0.0
C309 C 0.81089 0.15516 0.70744 0.0
C310 C 0.78495 0.17195 0.72948 0.0
C311 C 0.76073 0.14851 0.74811 0.0
H312 H 0.88721 0.75692 0.2488 0.0
H313 H 0.96707 0.85346 0.24417 0.0
H314 H 0.84652 0.78831 0.20832 0.0
H315 H 0.92731 0.88409 0.20376 0.0
H316 H 0.8652 0.92444 0.12033 0.0
H317 H 0.90234 0.874 0.14685 0.0
H318 H 0.80731 0.8538 0.21191 0.0
H319 H 0.76985 0.90434 0.18545 0.0
C320 C 0.89641 0.78435 0.23864 0.0
C321 C 0.93002 0.803 0.24968 0.0
C322 C 0.87319 0.80226 0.21564 0.0
C323 C 0.88395 0.83845 0.20284 0.0
C324 C 0.91858 0.85595 0.21286 0.0
C325 C 0.94117 0.83859 0.2362 0.0
C326 C 0.85171 0.90861 0.13974 0.0
C327 C 0.81491 0.91909 0.15129 0.0
C328 C 0.87303 0.87969 0.15487 0.0
C329 C 0.85788 0.86053 0.18169 0.0
C330 C 0.81961 0.86811 0.19122 0.0
C331 C 0.79827 0.89723 0.17615 0.0
H332 H 0.07925 0.72144 0.72209 0.0
H333 H 0.09351 0.8157 0.65507 0.0
H334 H 0.13374 0.7462 0.75286 0.0
H335 H 0.14733 0.84064 0.68605 0.0
H336 H 0.24208 0.88336 0.74751 0.0
H337 H 0.21169 0.83657 0.71138 0.0
H338 H 0.13011 0.80537 0.78547 0.0
H339 H 0.16035 0.85152 0.8213 0.0
C340 C 0.09468 0.74674 0.71336 0.0
C341 C 0.08138 0.76724 0.68663 0.0
C342 C 0.12582 0.76098 0.73107 0.0
C343 C 0.14423 0.79585 0.72228 0.0
C344 C 0.1338 0.81371 0.6935 0.0
C345 C 0.10267 0.79954 0.67583 0.0
C346 C 0.21825 0.86578 0.75624 0.0
C347 C 0.20312 0.87157 0.78703 0.0
C348 C 0.20085 0.83907 0.73555 0.0
C349 C 0.1684 0.81742 0.74551 0.0
C350 C 0.15531 0.8212 0.77711 0.0
C351 C 0.17238 0.84805 0.79758 0.0
H352 H 0.80806 0.92608 0.84277 0.0
H353 H 0.73078 0.90728 0.76348 0.0
H354 H 0.846 0.8699 0.82649 0.0
H355 H 0.76927 0.85138 0.74694 0.0
H356 H 0.84725 0.7498 0.72363 0.0
H357 H 0.80007 0.78511 0.7569 0.0
H358 H 0.88744 0.87131 0.77804 0.0
H359 H 0.93361 0.83667 0.74491 0.0
C360 C 0.79865 0.90946 0.82227 0.0
C361 C 0.76702 0.92171 0.80391 0.0
C362 C 0.82035 0.87723 0.81302 0.0
C363 C 0.81101 0.85673 0.78513 0.0
C364 C 0.7771 0.86654 0.76861 0.0
C365 C 0.7552 0.89876 0.77797 0.0
C366 C 0.85637 0.77571 0.73622 0.0
C367 C 0.89379 0.79081 0.73172 0.0
C368 C 0.82946 0.79595 0.75504 0.0
C369 C 0.8401 0.83092 0.77008 0.0
C370 C 0.87844 0.84421 0.7672 0.0
C371 C 0.90485 0.82455 0.74804 0.0
H372 H 0.2145 0.92785 0.27779 0.0
H373 H 0.26586 0.84313 0.21503 0.0
H374 H 0.18337 0.87643 0.30806 0.0
H375 H 0.23454 0.7907 0.24548 0.0
H376 H 0.10558 0.74314 0.26545 0.0
H377 H 0.16539 0.77359 0.24705 0.0
H378 H 0.18476 0.81948 0.34153 0.0
H379 H 0.12413 0.79028 0.35946 0.0
C380 C 0.2203 0.89792 0.27137 0.0
C381 C 0.24257 0.88918 0.24441 0.0
C382 C 0.20263 0.86831 0.28875 0.0
C383 C 0.20638 0.82929 0.27918 0.0
C384 C 0.23102 0.82044 0.25337 0.0
C385 C 0.24913 0.85028 0.23612 0.0
C386 C 0.12349 0.75832 0.28258 0.0
C387 C 0.10989 0.76524 0.31362 0.0
C388 C 0.15789 0.77576 0.27207 0.0
C389 C 0.17925 0.79994 0.29264 0.0
C390 C 0.16839 0.8019 0.32492 0.0
C391 C 0.13378 0.78504 0.33523 0.0
H392 H 0.09054 0.23919 0.75646 0.0
H393 H 0.13798 0.1767 0.67607 0.0
H394 H 0.13214 0.20188 0.79235 0.0
H395 H 0.17885 0.13953 0.71152 0.0
H396 H 0.15377 0.07678 0.83582 0.0
H397 H 0.12828 0.13278 0.80771 0.0
H398 H 0.23179 0.13741 0.74965 0.0
H399 H 0.25712 0.08075 0.7774 0.0
C400 C 0.11051 0.21824 0.74642 0.0
C401 C 0.11067 0.21043 0.71356 0.0
C402 C 0.13413 0.19675 0.76693 0.0
C403 C 0.15858 0.16754 0.75481 0.0
C404 C 0.16071 0.16201 0.72169 0.0
C405 C 0.13697 0.1831 0.70135 0.0
C406 C 0.17147 0.09012 0.81747 0.0
C407 C 0.20714 0.07375 0.80841 0.0
C408 C 0.15698 0.12253 0.80154 0.0
C409 C 0.17783 0.1393 0.77621 0.0
C410 C 0.2148 0.12475 0.76877 0.0
C411 C 0.22932 0.09231 0.78471 0.0
H412 H 0.9148 0.1666 0.32384 0.0
H413 H 0.91267 0.26882 0.26413 0.0
H414 H 0.86431 0.13721 0.29167 0.0
H415 H 0.86138 0.23953 0.23224 0.0
H416 H 0.83663 0.1421 0.15704 0.0
H417 H 0.86694 0.18572 0.19482 0.0
H418 H 0.79776 0.13654 0.27085 0.0
H419 H 0.76743 0.0921 0.23266 0.0
C420 C 0.90297 0.18319 0.30426 0.0
C421 C 0.91838 0.21971 0.29611 0.0
C422 C 0.87367 0.16645 0.286 0.0
C423 C 0.85913 0.18586 0.2592 0.0
C424 C 0.87245 0.22363 0.2525 0.0
C425 C 0.9018 0.24041 0.27079 0.0
C426 C 0.82732 0.14099 0.18172 0.0
C427 C 0.80014 0.11324 0.19201 0.0
C428 C 0.84443 0.16634 0.20336 0.0
C429 C 0.83493 0.16446 0.23589 0.0
C430 C 0.80589 0.13838 0.24594 0.0
C431 C 0.78844 0.11309 0.22411 0.0
loop_
_geom_bond_atom_site_label_1
_geom_bond_atom_site_label_2
_geom_bond_distance
_geom_bond_site_symmetry_2
_ccdc_geom_bond_type
Zn0 O3 2.031 . S
Zn0 O5 2.049 1_565 S
Zn0 O10 2.067 1_565 S
Zn1 O2 1.962 . S
Zn1 O4 1.986 . S
Zn1 O6 1.996 . S
Zn1 O9 1.943 1_565 S
O2 Zn1 1.962 . S
O2 C7 1.254 . S
O3 Zn0 2.031 . S
O3 C7 1.269 . S
O4 Zn1 1.986 . S
O4 C11 1.262 . S
O5 Zn0 2.049 1_545 S
O5 C13 1.260 . S
O6 Zn1 1.996 . S
O6 C13 1.257 1_565 S
C7 O2 1.254 . S
C7 O3 1.269 . S
C8 O9 1.249 . S
C8 O10 1.270 . S
O9 Zn1 1.943 1_545 S
O9 C8 1.249 . S
O10 Zn0 2.067 1_545 S
O10 C8 1.270 . S
C11 O4 1.262 . S
C11 O12 1.232 . S
O12 C11 1.232 . S
C13 O5 1.260 . S
C13 O6 1.257 1_545 S
Zn14 O17 2.031 . S
Zn14 O19 2.049 1_455 S
Zn14 O24 2.067 1_455 S
Zn15 O16 1.962 . S
Zn15 O18 1.986 . S
Zn15 O20 1.996 . S
Zn15 O23 1.943 1_455 S
O16 Zn15 1.962 . S
O16 C21 1.254 . S
O17 Zn14 2.031 . S
O17 C21 1.269 . S
O18 Zn15 1.986 . S
O18 C25 1.262 . S
O19 Zn14 2.049 1_655 S
O19 C27 1.263 . S
O20 Zn15 1.996 . S
O20 C27 1.252 1_455 S
C21 O16 1.254 . S
C21 O17 1.269 . S
C22 O23 1.249 . S
C22 O24 1.270 . S
O23 Zn15 1.943 1_655 S
O23 C22 1.249 . S
O24 Zn14 2.067 1_655 S
O24 C22 1.270 . S
C25 O18 1.262 . S
C25 O26 1.232 . S
O26 C25 1.232 . S
C27 O19 1.263 . S
C27 O20 1.252 1_655 S
Zn28 O31 2.031 . S
Zn28 O33 2.049 1_545 S
Zn28 O38 2.067 1_545 S
Zn29 O30 1.962 . S
Zn29 O32 1.986 . S
Zn29 O34 1.996 . S
Zn29 O37 1.943 1_545 S
O30 Zn29 1.962 . S
O30 C35 1.254 . S
O31 Zn28 2.031 . S
O31 C35 1.269 . S
O32 Zn29 1.986 . S
O32 C39 1.262 . S
O33 Zn28 2.049 1_565 S
O33 C41 1.263 . S
O34 Zn29 1.996 . S
O34 C41 1.252 1_545 S
C35 O30 1.254 . S
C35 O31 1.269 . S
C36 O37 1.249 . S
C36 O38 1.270 . S
O37 Zn29 1.943 1_565 S
O37 C36 1.249 . S
O38 Zn28 2.067 1_565 S
O38 C36 1.270 . S
C39 O32 1.262 . S
C39 O40 1.232 . S
O40 C39 1.232 . S
C41 O33 1.263 . S
C41 O34 1.252 1_565 S
Zn42 O45 2.031 . S
Zn42 O47 2.049 1_655 S
Zn42 O52 2.067 1_655 S
Zn43 O44 1.962 . S
Zn43 O46 1.986 . S
Zn43 O48 1.996 . S
Zn43 O51 1.943 1_655 S
O44 Zn43 1.962 . S
O44 C49 1.254 . S
O45 Zn42 2.031 . S
O45 C49 1.269 . S
O46 Zn43 1.986 . S
O46 C53 1.262 . S
O47 Zn42 2.049 1_455 S
O47 C55 1.260 . S
O48 Zn43 1.996 . S
O48 C55 1.257 1_655 S
C49 O44 1.254 . S
C49 O45 1.269 . S
C50 O51 1.249 . S
C50 O52 1.270 . S
O51 Zn43 1.943 1_455 S
O51 C50 1.249 . S
O52 Zn42 2.067 1_455 S
O52 C50 1.270 . S
C53 O46 1.262 . S
C53 O54 1.232 . S
O54 C53 1.232 . S
C55 O47 1.260 . S
C55 O48 1.257 1_455 S
Zn56 O59 2.031 . S
Zn56 O61 2.049 1_545 S
Zn56 O66 2.067 1_545 S
Zn57 O58 1.962 . S
Zn57 O60 1.986 . S
Zn57 O62 1.996 . S
Zn57 O65 1.943 1_545 S
O58 Zn57 1.962 . S
O58 C63 1.254 . S
O59 Zn56 2.031 . S
O59 C63 1.269 . S
O60 Zn57 1.986 . S
O60 C67 1.262 . S
O61 Zn56 2.049 1_565 S
O61 C69 1.263 . S
O62 Zn57 1.996 . S
O62 C69 1.252 1_545 S
C63 O58 1.254 . S
C63 O59 1.269 . S
C64 O65 1.249 . S
C64 O66 1.270 . S
O65 Zn57 1.943 1_565 S
O65 C64 1.249 . S
O66 Zn56 2.067 1_565 S
O66 C64 1.270 . S
C67 O60 1.262 . S
C67 O68 1.232 . S
O68 C67 1.232 . S
C69 O61 1.263 . S
C69 O62 1.252 1_565 S
Zn70 O73 2.031 . S
Zn70 O75 2.049 1_655 S
Zn70 O80 2.067 1_655 S
Zn71 O72 1.962 . S
Zn71 O74 1.986 . S
Zn71 O76 1.996 . S
Zn71 O79 1.943 1_655 S
O72 Zn71 1.962 . S
O72 C77 1.254 . S
O73 Zn70 2.031 . S
O73 C77 1.269 . S
O74 Zn71 1.986 . S
O74 C81 1.262 . S
O75 Zn70 2.049 1_455 S
O75 C83 1.260 . S
O76 Zn71 1.996 . S
O76 C83 1.257 1_655 S
C77 O72 1.254 . S
C77 O73 1.269 . S
C78 O79 1.249 . S
C78 O80 1.270 . S
O79 Zn71 1.943 1_455 S
O79 C78 1.249 . S
O80 Zn70 2.067 1_455 S
O80 C78 1.270 . S
C81 O74 1.262 . S
C81 O82 1.232 . S
O82 C81 1.232 . S
C83 O75 1.260 . S
C83 O76 1.257 1_455 S
Zn84 O87 2.031 . S
Zn84 O89 2.049 1_565 S
Zn84 O94 2.067 1_565 S
Zn85 O86 1.962 . S
Zn85 O88 1.986 . S
Zn85 O90 1.996 . S
Zn85 O93 1.943 1_565 S
O86 Zn85 1.962 . S
O86 C91 1.254 . S
O87 Zn84 2.031 . S
O87 C91 1.269 . S
O88 Zn85 1.986 . S
O88 C95 1.262 . S
O89 Zn84 2.049 1_545 S
O89 C97 1.260 . S
O90 Zn85 1.996 . S
O90 C97 1.257 1_565 S
C91 O86 1.254 . S
C91 O87 1.269 . S
C92 O93 1.249 . S
C92 O94 1.270 . S
O93 Zn85 1.943 1_545 S
O93 C92 1.249 . S
O94 Zn84 2.067 1_545 S
O94 C92 1.270 . S
C95 O88 1.262 . S
C95 O96 1.232 . S
O96 C95 1.232 . S
C97 O89 1.260 . S
C97 O90 1.257 1_545 S
Zn98 O101 2.031 . S
Zn98 O103 2.049 1_455 S
Zn98 O108 2.067 1_455 S
Zn99 O100 1.962 . S
Zn99 O102 1.986 . S
Zn99 O104 1.996 . S
Zn99 O107 1.943 1_455 S
O100 Zn99 1.962 . S
O100 C105 1.254 . S
O101 Zn98 2.031 . S
O101 C105 1.269 . S
O102 Zn99 1.986 . S
O102 C109 1.262 . S
O103 Zn98 2.049 1_655 S
O103 C111 1.263 . S
O104 Zn99 1.996 . S
O104 C111 1.252 1_455 S
C105 O100 1.254 . S
C105 O101 1.269 . S
C106 O107 1.249 . S
C106 O108 1.270 . S
O107 Zn99 1.943 1_655 S
O107 C106 1.249 . S
O108 Zn98 2.067 1_655 S
O108 C106 1.270 . S
C109 O102 1.262 . S
C109 O110 1.232 . S
O110 C109 1.232 . S
C111 O103 1.263 . S
C111 O104 1.252 1_655 S
H112 C120 0.950 . S
H113 C125 0.950 . S
H114 C122 0.950 . S
H115 C124 0.950 . S
H116 C126 0.950 . S
H117 C128 0.950 . S
H118 C130 0.950 . S
H119 C131 0.950 . S
C120 H112 0.950 . S
C120 C121 1.386 1_565 S
C120 C122 1.391 . S
C121 C120 1.386 1_545 S
C121 C125 1.393 . S
C122 H114 0.950 . S
C122 C120 1.391 . S
C122 C123 1.400 1_565 S
C123 C122 1.400 1_545 S
C123 C124 1.398 . S
C123 C129 1.490 1_544 S
C124 H115 0.950 . S
C124 C123 1.398 . S
C124 C125 1.391 . S
C125 H113 0.950 . S
C125 C121 1.393 . S
C125 C124 1.391 . S
C126 H116 0.950 . S
C126 C127 1.386 1_545 S
C126 C128 1.391 . S
C127 C126 1.386 1_565 S
C127 C131 1.393 . S
C128 H117 0.950 . S
C128 C126 1.391 . S
C128 C129 1.397 1_545 S
C129 C123 1.490 1_566 S
C129 C128 1.397 1_565 S
C129 C130 1.403 . S
C130 H118 0.950 . S
C130 C129 1.403 . S
C130 C131 1.391 . S
C131 H119 0.950 . S
C131 C127 1.393 . S
C131 C130 1.391 . S
H132 C140 0.950 . S
H133 C145 0.950 . S
H134 C142 0.950 . S
H135 C144 0.950 . S
H136 C146 0.950 . S
H137 C148 0.950 . S
H138 C150 0.950 . S
H139 C151 0.950 . S
C140 H132 0.950 . S
C140 C141 1.386 1_455 S
C140 C142 1.391 . S
C141 C140 1.386 1_655 S
C141 C145 1.393 . S
C142 H134 0.950 . S
C142 C140 1.391 . S
C142 C143 1.413 . S
C143 C142 1.413 . S
C143 C144 1.386 1_455 S
C143 C149 1.491 . S
C144 H135 0.950 . S
C144 C143 1.386 1_655 S
C144 C145 1.391 . S
C145 H133 0.950 . S
C145 C141 1.393 . S
C145 C144 1.391 . S
C146 H136 0.950 . S
C146 C147 1.386 1_655 S
C146 C148 1.391 . S
C147 C146 1.386 1_455 S
C147 C151 1.393 . S
C148 H137 0.950 . S
C148 C146 1.391 . S
C148 C149 1.400 1_655 S
C149 C143 1.491 . S
C149 C148 1.400 1_455 S
C149 C150 1.398 . S
C150 H138 0.950 . S
C150 C149 1.398 . S
C150 C151 1.391 . S
C151 H139 0.950 . S
C151 C147 1.393 . S
C151 C150 1.391 . S
H152 C160 0.950 . S
H153 C165 0.950 . S
H154 C162 0.950 1_565 S
H155 C164 0.950 . S
H156 C166 0.950 . S
H157 C168 0.951 . S
H158 C170 0.950 . S
H159 C171 0.950 . S
C160 H152 0.950 . S
C160 C161 1.386 . S
C160 C162 1.391 . S
C161 C160 1.386 . S
C161 C165 1.393 . S
C162 H154 0.950 1_545 S
C162 C160 1.391 . S
C162 C163 1.400 . S
C163 C162 1.400 . S
C163 C164 1.398 . S
C163 C169 1.490 1_546 S
C164 H155 0.950 . S
C164 C163 1.398 . S
C164 C165 1.391 . S
C165 H153 0.950 . S
C165 C161 1.393 . S
C165 C164 1.391 . S
C166 H156 0.950 . S
C166 C167 1.386 . S
C166 C168 1.391 1_565 S
C167 C166 1.386 . S
C167 C171 1.393 . S
C168 H157 0.951 . S
C168 C166 1.391 1_545 S
C168 C169 1.400 1_545 S
C169 C163 1.490 1_564 S
C169 C168 1.400 1_565 S
C169 C170 1.400 . S
C170 H158 0.950 . S
C170 C169 1.400 . S
C170 C171 1.391 . S
C171 H159 0.950 . S
C171 C167 1.393 . S
C171 C170 1.391 . S
H172 C180 0.950 . S
H173 C185 0.950 . S
H174 C182 0.950 . S
H175 C184 0.950 . S
H176 C186 0.950 . S
H177 C188 0.950 . S
H178 C190 0.950 . S
H179 C191 0.950 . S
C180 H172 0.950 . S
C180 C181 1.386 . S
C180 C182 1.391 . S
C181 C180 1.386 . S
C181 C185 1.393 1_655 S
C182 H174 0.950 . S
C182 C180 1.391 . S
C182 C183 1.399 . S
C183 C182 1.399 . S
C183 C184 1.400 1_655 S
C183 C189 1.491 1_655 S
C184 H175 0.950 . S
C184 C183 1.400 1_455 S
C184 C185 1.391 . S
C185 H173 0.950 . S
C185 C181 1.393 1_455 S
C185 C184 1.391 . S
C186 H176 0.950 . S
C186 C187 1.386 . S
C186 C188 1.391 . S
C187 C186 1.386 . S
C187 C191 1.393 1_455 S
C188 H177 0.950 . S
C188 C186 1.391 . S
C188 C189 1.400 . S
C189 C183 1.491 1_455 S
C189 C188 1.400 . S
C189 C190 1.398 1_455 S
C190 H178 0.950 . S
C190 C189 1.398 1_655 S
C190 C191 1.391 . S
C191 H179 0.950 . S
C191 C187 1.393 1_655 S
C191 C190 1.391 . S
H192 C200 0.950 . S
H193 C205 0.950 . S
H194 C202 0.950 . S
H195 C204 0.950 . S
H196 C206 0.950 . S
H197 C208 0.950 . S
H198 C210 0.950 . S
H199 C211 0.950 . S
C200 H192 0.950 . S
C200 C201 1.369 1_565 S
C200 C202 1.391 . S
C201 C200 1.369 1_545 S
C201 C205 1.410 . S
C202 H194 0.950 . S
C202 C200 1.391 . S
C202 C203 1.400 1_565 S
C203 C202 1.400 1_545 S
C203 C204 1.398 . S
C203 C209 1.491 . S
C204 H195 0.950 . S
C204 C203 1.398 . S
C204 C205 1.391 . S
C205 H193 0.950 . S
C205 C201 1.410 . S
C205 C204 1.391 . S
C206 H196 0.950 . S
C206 C207 1.386 . S
C206 C208 1.391 . S
C207 C206 1.386 . S
C207 C211 1.393 1_545 S
C208 H197 0.950 . S
C208 C206 1.391 . S
C208 C209 1.400 . S
C209 C203 1.491 . S
C209 C208 1.400 . S
C209 C210 1.398 1_545 S
C210 H198 0.950 . S
C210 C209 1.398 1_565 S
C210 C211 1.391 . S
C211 H199 0.950 . S
C211 C207 1.393 1_565 S
C211 C210 1.391 . S
H212 C220 0.950 . S
H213 C225 0.950 . S
H214 C222 0.950 . S
H215 C224 0.950 . S
H216 C226 0.950 . S
H217 C228 0.950 . S
H218 C230 0.950 . S
H219 C231 0.950 . S
C220 H212 0.950 . S
C220 C221 1.386 1_655 S
C220 C222 1.391 . S
C221 C220 1.386 1_455 S
C221 C225 1.393 . S
C222 H214 0.950 . S
C222 C220 1.391 . S
C222 C223 1.400 1_655 S
C223 C222 1.400 1_455 S
C223 C224 1.398 . S
C223 C229 1.491 . S
C224 H215 0.950 . S
C224 C223 1.398 . S
C224 C225 1.391 . S
C225 H213 0.950 . S
C225 C221 1.393 . S
C225 C224 1.391 . S
C226 H216 0.950 . S
C226 C227 1.372 1_455 S
C226 C228 1.391 . S
C227 C226 1.372 1_655 S
C227 C231 1.406 . S
C228 H217 0.950 . S
C228 C226 1.391 . S
C228 C229 1.409 . S
C229 C223 1.491 . S
C229 C228 1.409 . S
C229 C230 1.389 1_455 S
C230 H218 0.950 . S
C230 C229 1.389 1_655 S
C230 C231 1.391 . S
C231 H219 0.950 . S
C231 C227 1.406 . S
C231 C230 1.391 . S
H232 C240 0.950 . S
H233 C245 0.950 . S
H234 C242 0.950 . S
H235 C244 0.950 . S
H236 C246 0.950 . S
H237 C248 0.950 . S
H238 C250 0.950 . S
H239 C251 0.950 . S
C240 H232 0.950 . S
C240 C241 1.395 . S
C240 C242 1.391 . S
C241 C240 1.395 . S
C241 C245 1.385 1_565 S
C242 H234 0.950 . S
C242 C240 1.391 . S
C242 C243 1.397 1_565 S
C243 C242 1.397 1_545 S
C243 C244 1.401 . S
C243 C249 1.491 . S
C244 H235 0.950 . S
C244 C243 1.401 . S
C244 C245 1.391 . S
C245 H233 0.950 . S
C245 C241 1.385 1_545 S
C245 C244 1.391 . S
C246 H236 0.950 . S
C246 C247 1.386 . S
C246 C248 1.391 . S
C247 C246 1.386 . S
C247 C251 1.393 1_545 S
C248 H237 0.950 . S
C248 C246 1.391 . S
C248 C249 1.400 . S
C249 C243 1.491 . S
C249 C248 1.400 . S
C249 C250 1.398 1_545 S
C250 H238 0.950 . S
C250 C249 1.398 1_565 S
C250 C251 1.391 . S
C251 H239 0.950 . S
C251 C247 1.393 1_565 S
C251 C250 1.391 . S
H252 C260 0.950 . S
H253 C265 0.950 . S
H254 C262 0.950 . S
H255 C264 0.950 . S
H256 C266 0.950 . S
H257 C268 0.950 . S
H258 C270 0.950 . S
H259 C271 0.950 . S
C260 H252 0.950 . S
C260 C261 1.371 1_655 S
C260 C262 1.391 . S
C261 C260 1.371 1_455 S
C261 C265 1.407 . S
C262 H254 0.950 . S
C262 C260 1.391 . S
C262 C263 1.400 1_655 S
C263 C262 1.400 1_455 S
C263 C264 1.398 . S
C263 C269 1.491 . S
C264 H255 0.950 . S
C264 C263 1.398 . S
C264 C265 1.391 . S
C265 H253 0.950 . S
C265 C261 1.407 . S
C265 C264 1.391 . S
C266 H256 0.950 . S
C266 C267 1.386 . S
C266 C268 1.391 . S
C267 C266 1.386 . S
C267 C271 1.393 1_455 S
C268 H257 0.950 . S
C268 C266 1.391 . S
C268 C269 1.400 . S
C269 C263 1.491 . S
C269 C268 1.400 . S
C269 C270 1.398 1_455 S
C270 H258 0.950 . S
C270 C269 1.398 1_655 S
C270 C271 1.391 . S
C271 H259 0.950 . S
C271 C267 1.393 1_655 S
C271 C270 1.391 . S
H272 C280 0.950 . S
H273 C285 0.950 . S
H274 C282 0.950 . S
H275 C284 0.950 . S
H276 C286 0.950 . S
H277 C288 0.950 . S
H278 C290 0.950 . S
H279 C291 0.950 . S
C280 H272 0.950 . S
C280 C281 1.386 . S
C280 C282 1.391 . S
C281 C280 1.386 . S
C281 C285 1.393 . S
C282 H274 0.950 . S
C282 C280 1.391 . S
C282 C283 1.400 . S
C283 C282 1.400 . S
C283 C284 1.398 . S
C283 C289 1.491 . S
C284 H275 0.950 . S
C284 C283 1.398 . S
C284 C285 1.391 . S
C285 H273 0.950 . S
C285 C281 1.393 . S
C285 C284 1.391 . S
C286 H276 0.950 . S
C286 C287 1.386 . S
C286 C288 1.391 . S
C287 C286 1.386 . S
C287 C291 1.393 . S
C288 H277 0.950 . S
C288 C286 1.391 . S
C288 C289 1.400 . S
C289 C283 1.491 . S
C289 C288 1.400 . S
C289 C290 1.398 . S
C290 H278 0.950 . S
C290 C289 1.398 . S
C290 C291 1.391 . S
C291 H279 0.950 . S
C291 C287 1.393 . S
C291 C290 1.391 . S
H292 C300 0.950 . S
H293 C305 0.950 . S
H294 C302 0.950 . S
H295 C304 0.950 . S
H296 C306 0.950 . S
H297 C308 0.950 . S
H298 C310 0.950 . S
H299 C311 0.950 . S
C300 H292 0.950 . S
C300 C301 1.386 . S
C300 C302 1.391 . S
C301 C300 1.386 . S
C301 C305 1.393 . S
C302 H294 0.950 . S
C302 C300 1.391 . S
C302 C303 1.400 . S
C303 C302 1.400 . S
C303 C304 1.398 . S
C303 C309 1.491 . S
C304 H295 0.950 . S
C304 C303 1.398 . S
C304 C305 1.391 . S
C305 H293 0.950 . S
C305 C301 1.393 . S
C305 C304 1.391 . S
C306 H296 0.950 . S
C306 C307 1.386 . S
C306 C308 1.391 . S
C307 C306 1.386 . S
C307 C311 1.393 . S
C308 H297 0.950 . S
C308 C306 1.391 . S
C308 C309 1.400 . S
C309 C303 1.491 . S
C309 C308 1.400 . S
C309 C310 1.398 . S
C310 H298 0.950 . S
C310 C309 1.398 . S
C310 C311 1.391 . S
C311 H299 0.950 . S
C311 C307 1.393 . S
C311 C310 1.391 . S
H312 C320 0.950 . S
H313 C325 0.950 . S
H314 C322 0.950 . S
H315 C324 0.950 . S
H316 C326 0.950 . S
H317 C328 0.950 . S
H318 C330 0.950 . S
H319 C331 0.950 . S
C320 H312 0.950 . S
C320 C321 1.386 . S
C320 C322 1.391 . S
C321 C320 1.386 . S
C321 C325 1.393 . S
C322 H314 0.950 . S
C322 C320 1.391 . S
C322 C323 1.400 . S
C323 C322 1.400 . S
C323 C324 1.398 . S
C323 C329 1.491 . S
C324 H315 0.950 . S
C324 C323 1.398 . S
C324 C325 1.391 . S
C325 H313 0.950 . S
C325 C321 1.393 . S
C325 C324 1.391 . S
C326 H316 0.950 . S
C326 C327 1.386 . S
C326 C328 1.391 . S
C327 C326 1.386 . S
C327 C331 1.393 . S
C328 H317 0.950 . S
C328 C326 1.391 . S
C328 C329 1.400 . S
C329 C323 1.491 . S
C329 C328 1.400 . S
C329 C330 1.398 . S
C330 H318 0.950 . S
C330 C329 1.398 . S
C330 C331 1.391 . S
C331 H319 0.950 . S
C331 C327 1.393 . S
C331 C330 1.391 . S
H332 C340 0.950 . S
H333 C345 0.950 . S
H334 C342 0.950 . S
H335 C344 0.950 . S
H336 C346 0.950 . S
H337 C348 0.950 . S
H338 C350 0.950 . S
H339 C351 0.950 . S
C340 H332 0.950 . S
C340 C341 1.386 . S
C340 C342 1.391 . S
C341 C340 1.386 . S
C341 C345 1.393 . S
C342 H334 0.950 . S
C342 C340 1.391 . S
C342 C343 1.400 . S
C343 C342 1.400 . S
C343 C344 1.398 . S
C343 C349 1.491 . S
C344 H335 0.950 . S
C344 C343 1.398 . S
C344 C345 1.391 . S
C345 H333 0.950 . S
C345 C341 1.393 . S
C345 C344 1.391 . S
C346 H336 0.950 . S
C346 C347 1.386 . S
C346 C348 1.391 . S
C347 C346 1.386 . S
C347 C351 1.393 . S
C348 H337 0.950 . S
C348 C346 1.391 . S
C348 C349 1.400 . S
C349 C343 1.491 . S
C349 C348 1.400 . S
C349 C350 1.398 . S
C350 H338 0.950 . S
C350 C349 1.398 . S
C350 C351 1.391 . S
C351 H339 0.950 . S
C351 C347 1.393 . S
C351 C350 1.391 . S
H352 C360 0.950 . S
H353 C365 0.950 . S
H354 C362 0.950 . S
H355 C364 0.950 . S
H356 C366 0.950 . S
H357 C368 0.950 . S
H358 C370 0.950 . S
H359 C371 0.950 . S
C360 H352 0.950 . S
C360 C361 1.386 . S
C360 C362 1.391 . S
C361 C360 1.386 . S
C361 C365 1.393 . S
C362 H354 0.950 . S
C362 C360 1.391 . S
C362 C363 1.400 . S
C363 C362 1.400 . S
C363 C364 1.398 . S
C363 C369 1.491 . S
C364 H355 0.950 . S
C364 C363 1.398 . S
C364 C365 1.391 . S
C365 H353 0.950 . S
C365 C361 1.393 . S
C365 C364 1.391 . S
C366 H356 0.950 . S
C366 C367 1.386 . S
C366 C368 1.391 . S
C367 C366 1.386 . S
C367 C371 1.393 . S
C368 H357 0.950 . S
C368 C366 1.391 . S
C368 C369 1.400 . S
C369 C363 1.491 . S
C369 C368 1.400 . S
C369 C370 1.398 . S
C370 H358 0.950 . S
C370 C369 1.398 . S
C370 C371 1.391 . S
C371 H359 0.950 . S
C371 C367 1.393 . S
C371 C370 1.391 . S
H372 C380 0.950 . S
H373 C385 0.950 . S
H374 C382 0.950 . S
H375 C384 0.950 . S
H376 C386 0.950 . S
H377 C388 0.950 . S
H378 C390 0.950 . S
H379 C391 0.950 . S
C380 H372 0.950 . S
C380 C381 1.386 . S
C380 C382 1.391 . S
C381 C380 1.386 . S
C381 C385 1.393 . S
C382 H374 0.950 . S
C382 C380 1.391 . S
C382 C383 1.400 . S
C383 C382 1.400 . S
C383 C384 1.398 . S
C383 C389 1.491 . S
C384 H375 0.950 . S
C384 C383 1.398 . S
C384 C385 1.391 . S
C385 H373 0.950 . S
C385 C381 1.393 . S
C385 C384 1.391 . S
C386 H376 0.950 . S
C386 C387 1.386 . S
C386 C388 1.391 . S
C387 C386 1.386 . S
C387 C391 1.393 . S
C388 H377 0.950 . S
C388 C386 1.391 . S
C388 C389 1.400 . S
C389 C383 1.491 . S
C389 C388 1.400 . S
C389 C390 1.398 . S
C390 H378 0.950 . S
C390 C389 1.398 . S
C390 C391 1.391 . S
C391 H379 0.950 . S
C391 C387 1.393 . S
C391 C390 1.391 . S
H392 C400 0.950 . S
H393 C405 0.950 . S
H394 C402 0.950 . S
H395 C404 0.950 . S
H396 C406 0.950 . S
H397 C408 0.950 . S
H398 C410 0.950 . S
H399 C411 0.950 . S
C400 H392 0.950 . S
C400 C401 1.386 . S
C400 C402 1.391 . S
C401 C400 1.386 . S
C401 C405 1.393 . S
C402 H394 0.950 . S
C402 C400 1.391 . S
C402 C403 1.400 . S
C403 C402 1.400 . S
C403 C404 1.398 . S
C403 C409 1.491 . S
C404 H395 0.950 . S
C404 C403 1.398 . S
C404 C405 1.391 . S
C405 H393 0.950 . S
C405 C401 1.393 . S
C405 C404 1.391 . S
C406 H396 0.950 . S
C406 C407 1.386 . S
C406 C408 1.391 . S
C407 C406 1.386 . S
C407 C411 1.393 . S
C408 H397 0.950 . S
C408 C406 1.391 . S
C408 C409 1.400 . S
C409 C403 1.491 . S
C409 C408 1.400 . S
C409 C410 1.398 . S
C410 H398 0.950 . S
C410 C409 1.398 . S
C410 C411 1.391 . S
C411 H399 0.950 . S
C411 C407 1.393 . S
C411 C410 1.391 . S
H412 C420 0.950 . S
H413 C425 0.950 . S
H414 C422 0.950 . S
H415 C424 0.950 . S
H416 C426 0.950 . S
H417 C428 0.950 . S
H418 C430 0.950 . S
H419 C431 0.950 . S
C420 H412 0.950 . S
C420 C421 1.386 . S
C420 C422 1.391 . S
C421 C420 1.386 . S
C421 C425 1.393 . S
C422 H414 0.950 . S
C422 C420 1.391 . S
C422 C423 1.400 . S
C423 C422 1.400 . S
C423 C424 1.398 . S
C423 C429 1.491 . S
C424 H415 0.950 . S
C424 C423 1.398 . S
C424 C425 1.391 . S
C425 H413 0.950 . S
C425 C421 1.393 . S
C425 C424 1.391 . S
C426 H416 0.950 . S
C426 C427 1.386 . S
C426 C428 1.391 . S
C427 C426 1.386 . S
C427 C431 1.393 . S
C428 H417 0.950 . S
C428 C426 1.391 . S
C428 C429 1.400 . S
C429 C423 1.491 . S
C429 C428 1.400 . S
C429 C430 1.398 . S
C430 H418 0.950 . S
C430 C429 1.398 . S
C430 C431 1.391 . S
C431 H419 0.950 . S
C431 C427 1.393 . S
C431 C430 1.391 . S
C121 C13 1.463 . S
C127 C69 1.473 . S
C141 C27 1.447 . S
C147 C83 1.471 . S
C161 C97 1.469 . S
C167 C41 1.468 . S
C181 C111 1.479 . S
C187 C55 1.450 . S
C201 C11 1.130 1_545 S
C207 C39 1.140 . S
C221 C25 1.135 . S
C227 C53 1.131 . S
C241 C95 1.131 . S
C247 C67 1.134 . S
C261 C81 1.130 1_455 S
C267 C109 1.140 . S
C281 C78 1.362 . S
C287 C8 1.358 . S
C301 C22 1.349 . S
C307 C92 1.336 . S
C321 C106 1.338 . S
C327 C36 1.353 . S
C341 C50 1.362 . S
C347 C64 1.351 . S
C361 C91 1.086 . S
C367 C49 1.069 . S
C381 C7 1.067 . S
C387 C105 1.082 . S
C401 C21 1.097 . S
C407 C63 1.081 . S
C421 C77 1.075 . S
C427 C35 1.067 . S
