# Generated by pormake.
# Topology dft, (4)-cn, num edge types: 1
# Building blocks:
#     Node 0, Type 0, BuildingBlock: QUQFOY_clean_sbu_3, # of connection points: 4
#     Node 1, Type 0, BuildingBlock: QUQFOY_clean_sbu_3, # of connection points: 4
#     Node 2, Type 0, BuildingBlock: QUQFOY_clean_sbu_3, # of connection points: 4
#     Node 3, Type 0, BuildingBlock: QUQFOY_clean_sbu_3, # of connection points: 4
#     Node 4, Type 0, BuildingBlock: QUQFOY_clean_sbu_3, # of connection points: 4
#     Node 5, Type 0, BuildingBlock: QUQFOY_clean_sbu_3, # of connection points: 4
#     Node 6, Type 0, BuildingBlock: QUQFOY_clean_sbu_3, # of connection points: 4
#     Node 7, Type 0, BuildingBlock: QUQFOY_clean_sbu_3, # of connection points: 4
#     Edge 8, Type (0, 0), BuildingBlock: XIVTED_clean_linker_0, # of connection points: 2
#     Edge 9, Type (0, 0), BuildingBlock: XIVTED_clean_linker_0, # of connection points: 2
#     Edge 10, Type (0, 0), BuildingBlock: XIVTED_clean_linker_0, # of connection points: 2
#     Edge 11, Type (0, 0), BuildingBlock: XIVTED_clean_linker_0, # of connection points: 2
#     Edge 12, Type (0, 0), BuildingBlock: XIVTED_clean_linker_0, # of connection points: 2
#     Edge 13, Type (0, 0), BuildingBlock: XIVTED_clean_linker_0, # of connection points: 2
#     Edge 14, Type (0, 0), BuildingBlock: XIVTED_clean_linker_0, # of connection points: 2
#     Edge 15, Type (0, 0), BuildingBlock: XIVTED_clean_linker_0, # of connection points: 2
#     Edge 16, Type (0, 0), BuildingBlock: XIVTED_clean_linker_0, # of connection points: 2
#     Edge 17, Type (0, 0), BuildingBlock: XIVTED_clean_linker_0, # of connection points: 2
#     Edge 18, Type (0, 0), BuildingBlock: XIVTED_clean_linker_0, # of connection points: 2
#     Edge 19, Type (0, 0), BuildingBlock: XIVTED_clean_linker_0, # of connection points: 2
#     Edge 20, Type (0, 0), BuildingBlock: XIVTED_clean_linker_0, # of connection points: 2
#     Edge 21, Type (0, 0), BuildingBlock: XIVTED_clean_linker_0, # of connection points: 2
#     Edge 22, Type (0, 0), BuildingBlock: XIVTED_clean_linker_0, # of connection points: 2
#     Edge 23, Type (0, 0), BuildingBlock: XIVTED_clean_linker_0, # of connection points: 2
# Relax obj value: 0.179
# Max RMSD: 0.170
# Mean RMSD: 0.170
data_MOF--net-dft--node1-QUQFOY_clean_sbu_3--edge1-XIVTED_clean_linker_0
_symmetry_space_group_name_H-M    P1
_symmetry_Int_Tables_number       1
_symmetry_cell_setting            triclinic
loop_
_symmetry_equiv_pos_as_xyz
'x, y, z'
_cell_length_a     36.349218
_cell_length_b     36.084807
_cell_length_c     42.471276
_cell_angle_alpha  90.068261
_cell_angle_beta   90.086938
_cell_angle_gamma 90.366262
loop_
_atom_site_label
_atom_site_type_symbol
_atom_site_fract_x
_atom_site_fract_y
_atom_site_fract_z
_atom_type_partial_charge
C0 C 0.25424 0.95699 0.16432 0.0
O1 O 0.23888 0.96958 0.13972 0.0
Cd2 Cd 0.26052 0.02157 0.11095 0.0
O3 O 0.28325 0.97229 0.1755 0.0
Cd4 Cd 0.32433 0.0251 0.1606 0.0
C5 C 0.25491 0.08696 0.16899 0.0
O6 O 0.32418 0.00556 0.10654 0.0
O7 O 0.3498 0.05867 0.1139 0.0
O8 O 0.37554 -0.00965 0.18333 0.0
C9 C 0.34357 0.03158 0.09558 0.0
O10 O 0.2429 0.07598 0.14237 0.0
C11 C 0.39093 0.01848 0.19578 0.0
O12 O 0.28284 0.07176 0.1814 0.0
O13 O 0.37444 0.04918 0.19298 0.0
C14 C 0.09493 0.2686 0.67404 0.0
O15 O 0.08774 0.25276 0.64804 0.0
Cd16 Cd 0.03565 0.26609 0.61722 0.0
O17 O 0.07472 0.29476 0.68442 0.0
Cd18 Cd 0.02077 0.33117 0.66454 0.0
C19 C 0.96737 0.25476 0.67258 0.0
O20 O 0.04379 0.33164 0.61162 0.0
O21 O -0.0117 0.35105 0.61537 0.0
O22 O 0.05026 0.3867 0.68597 0.0
C23 C 0.01679 0.34706 0.59855 0.0
O24 O -0.01543 0.24162 0.64903 0.0
C25 C 0.02111 0.40001 0.69777 0.0
O26 O 0.97503 0.28685 0.68315 0.0
O27 O -0.00793 0.38052 0.69517 0.0
C28 C 0.78899 0.09361 0.17005 0.0
O29 O 0.80319 0.08614 0.14353 0.0
Cd30 Cd 0.78707 0.03393 0.11342 0.0
O31 O 0.7631 0.07356 0.18141 0.0
Cd32 Cd 0.72468 0.01951 0.16266 0.0
C33 C 0.79976 0.96538 0.1687 0.0
O34 O 0.72215 0.04412 0.11037 0.0
O35 O 0.702 -0.01172 0.11337 0.0
O36 O 0.67241 0.04976 0.18788 0.0
C37 C 0.70552 0.01759 0.0972 0.0
O38 O 0.81198 -0.01741 0.14472 0.0
C39 C 0.65765 0.01995 0.19765 0.0
O40 O 0.76849 0.97317 0.18017 0.0
O41 O 0.67496 -0.00983 0.19234 0.0
C42 C 0.95853 0.80583 0.66695 0.0
O43 O 0.97035 0.82185 0.64232 0.0
Cd44 Cd 0.02109 0.80086 0.61235 0.0
O45 O 0.9741 0.77673 0.67749 0.0
Cd46 Cd 0.02619 0.73629 0.66142 0.0
C47 C 0.08776 0.80694 0.66903 0.0
O48 O 0.00483 0.73663 0.60801 0.0
O49 O 0.05769 0.71117 0.61362 0.0
O50 O -0.00867 0.68493 0.68442 0.0
C51 C 0.03006 0.71732 0.59618 0.0
O52 O 0.07597 0.81895 0.64273 0.0
C53 C 0.01918 0.66893 0.69613 0.0
O54 O 0.07315 0.77854 0.68167 0.0
O55 O 0.05001 0.68515 0.69281 0.0
C56 C 0.25763 0.10537 0.79435 0.0
O57 O 0.24222 0.0933 0.81915 0.0
Cd58 Cd 0.26256 0.04146 0.84855 0.0
O59 O 0.28611 0.08955 0.78316 0.0
Cd60 Cd 0.32572 0.03631 0.79852 0.0
C61 C 0.25469 0.97508 0.79149 0.0
O62 O 0.32678 0.05589 0.85253 0.0
O63 O 0.35018 0.00207 0.84517 0.0
O64 O 0.37916 0.0692 0.77717 0.0
C65 C 0.34515 0.02934 0.86348 0.0
O66 O 0.24334 -0.01338 0.81807 0.0
C67 C 0.39223 0.04115 0.76309 0.0
O68 O 0.28273 -0.01017 0.77862 0.0
O69 O 0.37345 0.01142 0.76438 0.0
C70 C 0.95765 0.25079 0.29291 0.0
O71 O 0.97015 0.23376 0.31675 0.0
Cd72 Cd 0.02067 0.25463 0.34763 0.0
O73 O 0.97267 0.28083 0.28339 0.0
Cd74 Cd 0.02515 0.32096 0.30031 0.0
C75 C 0.08712 0.25147 0.29117 0.0
O76 O 0.00423 0.31846 0.35388 0.0
O77 O 0.05665 0.34554 0.34846 0.0
O78 O -0.00875 0.37321 0.27805 0.0
C79 C 0.02938 0.33807 0.36596 0.0
O80 O 0.07578 0.23845 0.31728 0.0
C81 C 0.01947 0.38902 0.26652 0.0
O82 O 0.07204 0.27986 0.27921 0.0
O83 O 0.0499 0.37239 0.26969 0.0
C84 C 0.78877 0.95999 0.78978 0.0
O85 O 0.80288 0.96586 0.81669 0.0
Cd86 Cd 0.78721 0.01667 0.84855 0.0
O87 O 0.76314 -0.01938 0.77917 0.0
Cd88 Cd 0.7249 0.03328 0.79938 0.0
C89 C 0.80075 0.08746 0.79522 0.0
O90 O 0.72208 0.00713 0.85121 0.0
O91 O 0.70234 0.06296 0.84903 0.0
O92 O 0.67259 0.00316 0.77362 0.0
C93 C 0.70577 0.03337 0.86479 0.0
O94 O 0.81263 0.06928 0.81876 0.0
C95 C 0.65819 0.03296 0.76382 0.0
O96 O 0.76938 0.08023 0.78339 0.0
O97 O 0.67568 0.0628 0.76945 0.0
C98 C 0.09584 0.79065 0.2884 0.0
O99 O 0.08948 0.8056 0.31488 0.0
Cd100 Cd 0.03818 0.79083 0.34621 0.0
O101 O 0.0753 0.76454 0.27784 0.0
Cd102 Cd 0.02203 0.72653 0.29791 0.0
C103 C 0.96876 0.80247 0.29159 0.0
O104 O 0.04684 0.72539 0.35033 0.0
O105 O -0.00875 0.70525 0.34732 0.0
O106 O 0.05168 0.67315 0.27361 0.0
C107 C 0.02025 0.70921 0.36363 0.0
O108 O -0.01351 0.81518 0.31516 0.0
C109 C 0.022 0.65826 0.26393 0.0
O110 O 0.97603 0.77068 0.2804 0.0
O111 O -0.00747 0.676 0.26889 0.0
H112 H 0.36498 0.09053 0.05883 0.0
H113 H 0.36286 0.96954 0.90044 0.0
H114 H 0.3456 0.97244 0.05613 0.0
H115 H 0.35027 0.08835 0.90289 0.0
H116 H 0.37176 0.96993 0.95776 0.0
H117 H 0.37476 0.08972 0.00166 0.0
C118 C 0.36328 0.06442 0.04628 0.0
C119 C 0.35388 0.03162 0.06204 0.0
C120 C 0.36746 -0.00408 0.94562 0.0
C121 C 0.36515 0.03042 -0.00295 0.0
C122 C 0.3625 -0.00431 0.91298 0.0
C123 C 0.35523 0.02887 0.8971 0.0
C124 C 0.36546 0.02959 0.96224 0.0
C125 C 0.3552 0.06206 0.91437 0.0
C126 C 0.36876 0.06396 0.01372 0.0
C127 C 0.3522 -0.00153 0.04474 0.0
N128 N 0.35995 0.06157 0.94604 0.0
N129 N 0.35751 -0.00125 0.01314 0.0
H130 H 0.95862 0.35986 0.55872 0.0
H131 H 0.08571 0.36147 0.4046 0.0
H132 H 0.07703 0.35212 0.56105 0.0
H133 H 0.96921 0.3376 0.40367 0.0
H134 H 0.08217 0.37201 0.46165 0.0
H135 H 0.9614 0.3658 0.50123 0.0
C136 C -0.01483 0.35989 0.54717 0.0
C137 C 0.01758 0.35494 0.56451 0.0
C138 C 0.05737 0.36479 0.44882 0.0
C139 C 0.02102 0.3618 0.49912 0.0
C140 C 0.05938 0.35886 0.41634 0.0
C141 C 0.02783 0.34812 0.39958 0.0
C142 C 0.02351 0.36028 0.4644 0.0
C143 C -0.00567 0.34529 0.41583 0.0
C144 C -0.01324 0.36316 0.51443 0.0
C145 C 0.05132 0.35532 0.54846 0.0
N146 N -0.00693 0.35113 0.44735 0.0
N147 N 0.05216 0.35843 0.51664 0.0
H148 H 0.70116 0.97073 0.9 0.0
H149 H 0.69894 0.07981 0.06192 0.0
H150 H 0.68922 0.08942 0.90617 0.0
H151 H 0.69063 0.96067 0.0559 0.0
H152 H 0.69049 0.08382 0.00512 0.0
H153 H 0.69251 0.96623 0.95676 0.0
C154 C 0.6964 -0.00413 0.91332 0.0
C155 C 0.69641 0.03059 0.89847 0.0
C156 C 0.69007 0.05679 0.01618 0.0
C157 C 0.68671 0.02563 0.96353 0.0
C158 C 0.69501 0.05445 0.04861 0.0
C159 C 0.69599 0.01979 0.06352 0.0
C160 C 0.68658 0.02419 -0.00161 0.0
C161 C 0.69028 -0.01209 0.04525 0.0
C162 C 0.69134 -0.00676 0.94573 0.0
C163 C 0.68967 0.06216 0.91676 0.0
N164 N 0.68634 -0.00915 0.0135 0.0
N165 N 0.68558 0.05897 0.94846 0.0
H166 H 0.08139 0.70506 0.40031 0.0
H167 H 0.96917 0.71302 0.55945 0.0
H168 H 0.96316 0.6945 0.40415 0.0
H169 H 0.08675 0.69766 0.55682 0.0
H170 H 0.96632 0.70235 0.50287 0.0
H171 H 0.08411 0.6984 0.45739 0.0
C172 C 0.05598 0.701 0.41319 0.0
C173 C 0.02192 0.70085 0.39757 0.0
C174 C -0.00728 0.70085 0.51463 0.0
C175 C 0.02486 0.69345 0.46296 0.0
C176 C -0.00559 0.70709 0.54693 0.0
C177 C 0.02834 0.70671 0.5627 0.0
C178 C 0.0253 0.69474 0.49781 0.0
C179 C 0.06008 0.69841 0.54547 0.0
C180 C 0.05759 0.69706 0.44577 0.0
C181 C -0.01005 0.69504 0.41532 0.0
N182 N 0.05787 0.69329 0.51377 0.0
N183 N -0.00785 0.6921 0.44718 0.0
H184 H 0.4337 0.95704 0.20423 0.0
H185 H 0.6146 0.07916 0.21317 0.0
H186 H 0.43375 0.07567 0.21738 0.0
H187 H 0.61472 0.95957 0.2113 0.0
H188 H 0.54872 0.07775 0.22422 0.0
H189 H 0.49943 0.95635 0.2162 0.0
C190 C 0.44739 -0.01714 0.21022 0.0
C191 C 0.42839 0.01655 0.20921 0.0
C192 C 0.56324 0.05178 0.22196 0.0
C193 C 0.5037 0.01606 0.22249 0.0
C194 C 0.6009 0.05258 0.21567 0.0
C195 C 0.62002 0.01945 0.21073 0.0
C196 C 0.5445 0.0176 0.22287 0.0
C197 C 0.60095 -0.01419 0.21455 0.0
C198 C 0.48496 -0.01753 0.21703 0.0
C199 C 0.44743 0.04911 0.21746 0.0
N200 N 0.56409 -0.01425 0.21982 0.0
N201 N 0.48418 0.04814 0.22319 0.0
H202 H 0.96226 0.43691 0.72268 0.0
H203 H 0.95744 0.62622 0.70393 0.0
H204 H 0.07768 0.45011 0.7015 0.0
H205 H 0.07512 0.62519 0.71741 0.0
H206 H 0.95528 0.56021 0.71491 0.0
H207 H 0.95878 0.50301 0.73425 0.0
C208 C -0.01305 0.4537 0.7207 0.0
C209 C 0.02011 0.43816 0.71037 0.0
C210 C -0.01849 0.57436 0.71658 0.0
C211 C 0.01608 0.51419 0.72237 0.0
C212 C -0.01726 0.61224 0.71006 0.0
C213 C 0.01656 0.63113 0.7093 0.0
C214 C 0.01444 0.55521 0.72231 0.0
C215 C 0.04846 0.61163 0.71743 0.0
C216 C -0.01514 0.49163 0.72695 0.0
C217 C 0.05138 0.46104 0.70885 0.0
N218 N 0.04669 0.57461 0.72301 0.0
N219 N 0.04847 0.49798 0.71433 0.0
H220 H 0.6142 0.97359 0.74945 0.0
H221 H 0.4271 -0.01436 0.73109 0.0
H222 H 0.61661 0.09315 0.74809 0.0
H223 H 0.44275 0.09764 0.76448 0.0
H224 H 0.49244 -0.01737 0.71858 0.0
H225 H 0.54881 0.97483 0.73792 0.0
C226 C 0.6011 0.00014 0.74586 0.0
C227 C 0.62078 0.03331 0.7502 0.0
C228 C 0.48177 0.00785 0.72875 0.0
C229 C 0.54553 0.03515 0.73657 0.0
C230 C 0.44427 0.00974 0.73554 0.0
C231 C 0.42966 0.04161 0.7496 0.0
C232 C 0.50487 0.03788 0.73661 0.0
C233 C 0.45298 0.07226 0.75418 0.0
C234 C 0.56358 0.00089 0.73901 0.0
C235 C 0.60241 0.06689 0.74524 0.0
N236 N 0.48954 0.06942 0.74818 0.0
N237 N 0.56568 0.06695 0.7393 0.0
H238 H 0.95871 0.4324 0.2579 0.0
H239 H 0.08057 0.61448 0.24885 0.0
H240 H 0.07661 0.43221 0.24597 0.0
H241 H 0.96187 0.61491 0.25088 0.0
H242 H 0.07897 0.54797 0.23838 0.0
H243 H 0.95829 0.49863 0.24609 0.0
C244 C -0.01556 0.44615 0.25224 0.0
C245 C 0.01782 0.42692 0.2535 0.0
C246 C 0.05323 0.56267 0.24056 0.0
C247 C 0.01764 0.50279 0.24037 0.0
C248 C 0.05415 0.60069 0.24652 0.0
C249 C 0.02132 0.62011 0.25131 0.0
C250 C 0.01926 0.54387 0.23982 0.0
C251 C -0.01214 0.60093 0.24772 0.0
C252 C -0.0158 0.484 0.24551 0.0
C253 C 0.05028 0.44605 0.24568 0.0
N254 N -0.0123 0.56373 0.24276 0.0
N255 N 0.04945 0.48306 0.23998 0.0
H256 H 0.10536 0.25943 0.22902 0.0
H257 H 0.26141 0.10453 0.23147 0.0
H258 H 0.13482 0.19851 0.31268 0.0
H259 H 0.20198 0.13456 0.14727 0.0
H260 H 0.22399 0.14809 0.26152 0.0
H261 H 0.1496 0.22289 0.19896 0.0
C262 C 0.12141 0.23868 0.24118 0.0
C263 C 0.11619 0.23188 0.27343 0.0
C264 C 0.21935 0.14528 0.23644 0.0
C265 C 0.16693 0.19012 0.2391 0.0
C266 C 0.24079 0.12057 0.2192 0.0
C267 C 0.23468 0.11569 0.18678 0.0
C268 C 0.19189 0.16566 0.22113 0.0
C269 C 0.20748 0.13722 0.17223 0.0
C270 C 0.14651 0.21774 0.22394 0.0
C271 C 0.13774 0.20453 0.28785 0.0
N272 N 0.18706 0.16125 0.18952 0.0
N273 N 0.16215 0.18464 0.27058 0.0
H274 H 0.90593 0.27673 0.70467 0.0
H275 H 0.87558 0.08679 0.7922 0.0
H276 H 0.96827 0.17977 0.67956 0.0
H277 H 0.78115 0.1493 0.76187 0.0
H278 H 0.91531 0.12835 0.76156 0.0
H279 H 0.86401 0.23714 0.73553 0.0
C280 C 0.91066 0.24714 0.70556 0.0
C281 C 0.9404 0.23138 0.68945 0.0
C282 C 0.8859 0.13302 0.76186 0.0
C283 C 0.89361 0.18658 0.72526 0.0
C284 C 0.86328 0.10961 0.7795 0.0
C285 C 0.82505 0.11467 0.77952 0.0
C286 C 0.87027 0.16223 0.74482 0.0
C287 C 0.81051 0.14444 0.76235 0.0
C288 C 0.88681 0.2247 0.72308 0.0
C289 C 0.94544 0.19293 0.69139 0.0
N290 N 0.8332 0.16736 0.74581 0.0
N291 N 0.92257 0.17187 0.70936 0.0
H292 H 0.96949 0.87773 0.28675 0.0
H293 H 0.77892 0.90378 0.20203 0.0
H294 H 0.90713 0.78092 0.25894 0.0
H295 H 0.87443 0.96689 0.17363 0.0
H296 H 0.81919 0.8626 0.23262 0.0
H297 H 0.92766 0.91631 0.2557 0.0
C298 C 0.94669 0.86468 0.27448 0.0
C299 C 0.9417 0.82612 0.27535 0.0
C300 C 0.83116 0.88538 0.21947 0.0
C301 C 0.89382 0.87001 0.24025 0.0
C302 C 0.80833 0.9088 0.20211 0.0
C303 C 0.82349 0.93857 0.18517 0.0
C304 C 0.86908 0.89267 0.22068 0.0
C305 C 0.86173 0.94402 0.1861 0.0
C306 C 0.92311 0.88663 0.25662 0.0
C307 C 0.91193 0.81056 0.25874 0.0
N308 N 0.88319 0.9216 0.20396 0.0
N309 N 0.88883 0.83263 0.24201 0.0
H310 H 0.13485 0.86002 0.64598 0.0
H311 H 0.20176 0.92785 0.81459 0.0
H312 H 0.10629 0.80183 0.73136 0.0
H313 H 0.2595 0.95647 0.72916 0.0
H314 H 0.16435 0.88345 0.78464 0.0
H315 H 0.17879 0.89776 0.67598 0.0
C316 C 0.138 0.85499 0.67098 0.0
C317 C 0.11676 0.82779 0.68618 0.0
C318 C 0.18545 0.89922 0.77254 0.0
C319 C 0.16662 0.87119 0.7207 0.0
C320 C 0.20674 0.92464 0.7896 0.0
C321 C 0.23374 0.94602 0.77436 0.0
C322 C 0.19075 0.89562 0.73992 0.0
C323 C 0.23905 0.94058 0.74192 0.0
C324 C 0.16314 0.87648 0.68807 0.0
C325 C 0.12211 0.82243 0.71863 0.0
N326 N 0.21747 0.91623 0.72573 0.0
N327 N 0.14618 0.84423 0.73487 0.0
H328 H 0.78557 0.95223 0.72557 0.0
H329 H 0.93266 0.78837 0.72576 0.0
H330 H 0.82759 0.90016 0.80961 0.0
H331 H 0.91177 0.85934 0.64597 0.0
H332 H 0.88315 0.81926 0.75434 0.0
H333 H 0.82036 0.90793 0.69374 0.0
C334 C 0.80156 0.93108 0.7373 0.0
C335 C 0.8043 0.93022 0.77021 0.0
C336 C 0.88924 0.82778 0.73046 0.0
C337 C 0.844 0.87978 0.73416 0.0
C338 C 0.91746 0.81018 0.71415 0.0
C339 C 0.92677 0.82176 0.68367 0.0
C340 C 0.87013 0.85697 0.71608 0.0
C341 C 0.90594 0.84996 0.66966 0.0
C342 C 0.82151 0.90596 0.71916 0.0
C343 C 0.82529 0.90221 0.78425 0.0
N344 N 0.87877 0.8668 0.68607 0.0
N345 N 0.84462 0.87831 0.76615 0.0
H346 H 0.20135 0.90996 0.14162 0.0
H347 H 0.15658 0.82752 0.30933 0.0
H348 H 0.26865 0.93096 0.22367 0.0
H349 H 0.10421 0.78821 0.22425 0.0
H350 H 0.20167 0.86086 0.27766 0.0
H351 H 0.16909 0.86122 0.17033 0.0
C352 C 0.20955 0.90413 0.16563 0.0
C353 C 0.23733 0.92499 0.18048 0.0
C354 C 0.1807 0.84453 0.26584 0.0
C355 C 0.20039 0.86925 0.21348 0.0
C356 C 0.15487 0.82557 0.28391 0.0
C357 C 0.1263 0.8056 0.26933 0.0
C358 C 0.17758 0.84408 0.23292 0.0
C359 C 0.12569 0.80351 0.23638 0.0
C360 C 0.19122 0.87614 0.18194 0.0
C361 C 0.24716 0.91582 0.21142 0.0
N362 N 0.1506 0.82313 0.21922 0.0
N363 N 0.22832 0.88896 0.22707 0.0
H364 H 0.10634 0.27499 0.73771 0.0
H365 H 0.27224 0.13059 0.73473 0.0
H366 H 0.15416 0.23027 0.65292 0.0
H367 H 0.2058 0.15303 0.81671 0.0
H368 H 0.23941 0.17925 0.70636 0.0
H369 H 0.15323 0.24272 0.76867 0.0
C370 C 0.12708 0.25896 0.7256 0.0
C371 C 0.12602 0.25467 0.69281 0.0
C372 C 0.23236 0.17374 0.73068 0.0
C373 C 0.17943 0.21788 0.72786 0.0
C374 C 0.25109 0.14603 0.74688 0.0
C375 C 0.24124 0.13728 0.77791 0.0
C376 C 0.20378 0.19289 0.74571 0.0
C377 C 0.21382 0.15839 0.7926 0.0
C378 C 0.15369 0.24046 0.74325 0.0
C379 C 0.15359 0.2337 0.67824 0.0
N380 N 0.19581 0.185 0.77627 0.0
N381 N 0.17897 0.2158 0.69589 0.0
H382 H 0.92486 0.27637 0.23892 0.0
H383 H 0.82669 0.15289 0.1471 0.0
H384 H 0.91729 0.18936 0.30843 0.0
H385 H 0.78742 0.10503 0.23395 0.0
H386 H 0.86137 0.19857 0.177 0.0
H387 H 0.8752 0.24657 0.20932 0.0
C388 C 0.91282 0.25098 0.24793 0.0
C389 C 0.92588 0.23486 0.2758 0.0
C390 C 0.84433 0.17898 0.18968 0.0
C391 C 0.86965 0.20015 0.24173 0.0
C392 C 0.82478 0.15253 0.17256 0.0
C393 C 0.80452 0.12488 0.18812 0.0
C394 C 0.84385 0.17765 0.2227 0.0
C395 C 0.8028 0.12584 0.22107 0.0
C396 C 0.88462 0.23382 0.23089 0.0
C397 C 0.90865 0.2024 0.28672 0.0
N398 N 0.8229 0.15139 0.23733 0.0
N399 N 0.88164 0.18596 0.26952 0.0
loop_
_geom_bond_atom_site_label_1
_geom_bond_atom_site_label_2
_geom_bond_distance
_geom_bond_site_symmetry_2
_ccdc_geom_bond_type
C0 O1 1.306 . S
C0 O3 1.160 . S
O1 C0 1.306 . S
O1 Cd2 2.228 1_565 S
Cd2 O1 2.228 1_545 S
Cd2 O6 2.273 . S
Cd2 O10 2.277 . S
O3 C0 1.160 . S
O3 Cd4 2.203 1_565 S
Cd4 O3 2.203 1_545 S
Cd4 O6 2.411 . S
Cd4 O7 2.333 . S
Cd4 O8 2.352 . S
Cd4 O12 2.277 . S
Cd4 O13 2.356 . S
C5 O10 1.209 . S
C5 O12 1.226 . S
O6 Cd2 2.273 . S
O6 Cd4 2.411 . S
O6 C9 1.320 . S
O7 Cd4 2.333 . S
O7 C9 1.214 . S
O8 Cd4 2.352 . S
O8 C11 1.258 . S
C9 O6 1.320 . S
C9 O7 1.214 . S
O10 Cd2 2.277 . S
O10 C5 1.209 . S
C11 O8 1.258 . S
C11 O13 1.282 . S
O12 Cd4 2.277 . S
O12 C5 1.226 . S
O13 Cd4 2.356 . S
O13 C11 1.282 . S
C14 O15 1.306 . S
C14 O17 1.160 . S
O15 C14 1.306 . S
O15 Cd16 2.228 . S
Cd16 O15 2.228 . S
Cd16 O20 2.273 . S
Cd16 O24 2.277 . S
O17 C14 1.160 . S
O17 Cd18 2.203 . S
Cd18 O17 2.203 . S
Cd18 O20 2.411 . S
Cd18 O21 2.333 . S
Cd18 O22 2.352 . S
Cd18 O26 2.277 . S
Cd18 O27 2.356 . S
C19 O24 1.209 . S
C19 O26 1.226 . S
O20 Cd16 2.273 . S
O20 Cd18 2.411 . S
O20 C23 1.320 . S
O21 Cd18 2.333 . S
O21 C23 1.214 . S
O22 Cd18 2.352 . S
O22 C25 1.258 . S
C23 O20 1.320 . S
C23 O21 1.214 . S
O24 Cd16 2.277 . S
O24 C19 1.209 . S
C25 O22 1.258 . S
C25 O27 1.282 . S
O26 Cd18 2.277 . S
O26 C19 1.226 . S
O27 Cd18 2.356 . S
O27 C25 1.282 . S
C28 O29 1.306 . S
C28 O31 1.160 . S
O29 C28 1.306 . S
O29 Cd30 2.228 . S
Cd30 O29 2.228 . S
Cd30 O34 2.273 . S
Cd30 O38 2.277 . S
O31 C28 1.160 . S
O31 Cd32 2.203 . S
Cd32 O31 2.203 . S
Cd32 O34 2.411 . S
Cd32 O35 2.333 . S
Cd32 O36 2.352 . S
Cd32 O40 2.277 . S
Cd32 O41 2.356 . S
C33 O38 1.209 . S
C33 O40 1.226 . S
O34 Cd30 2.273 . S
O34 Cd32 2.411 . S
O34 C37 1.320 . S
O35 Cd32 2.333 . S
O35 C37 1.214 . S
O36 Cd32 2.352 . S
O36 C39 1.258 . S
C37 O34 1.320 . S
C37 O35 1.214 . S
O38 Cd30 2.277 . S
O38 C33 1.209 . S
C39 O36 1.258 . S
C39 O41 1.282 . S
O40 Cd32 2.277 . S
O40 C33 1.226 . S
O41 Cd32 2.356 . S
O41 C39 1.282 . S
C42 O43 1.306 . S
C42 O45 1.160 . S
O43 C42 1.306 . S
O43 Cd44 2.228 1_655 S
Cd44 O43 2.228 1_455 S
Cd44 O48 2.273 . S
Cd44 O52 2.277 . S
O45 C42 1.160 . S
O45 Cd46 2.203 1_655 S
Cd46 O45 2.203 1_455 S
Cd46 O48 2.411 . S
Cd46 O49 2.333 . S
Cd46 O50 2.352 . S
Cd46 O54 2.277 . S
Cd46 O55 2.356 . S
C47 O52 1.209 . S
C47 O54 1.226 . S
O48 Cd44 2.273 . S
O48 Cd46 2.411 . S
O48 C51 1.320 . S
O49 Cd46 2.333 . S
O49 C51 1.214 . S
O50 Cd46 2.352 . S
O50 C53 1.258 . S
C51 O48 1.320 . S
C51 O49 1.214 . S
O52 Cd44 2.277 . S
O52 C47 1.209 . S
C53 O50 1.258 . S
C53 O55 1.282 . S
O54 Cd46 2.277 . S
O54 C47 1.226 . S
O55 Cd46 2.356 . S
O55 C53 1.282 . S
C56 O57 1.306 . S
C56 O59 1.160 . S
O57 C56 1.306 . S
O57 Cd58 2.228 . S
Cd58 O57 2.228 . S
Cd58 O62 2.273 . S
Cd58 O66 2.277 . S
O59 C56 1.160 . S
O59 Cd60 2.203 . S
Cd60 O59 2.203 . S
Cd60 O62 2.411 . S
Cd60 O63 2.333 . S
Cd60 O64 2.352 . S
Cd60 O68 2.277 . S
Cd60 O69 2.356 . S
C61 O66 1.209 . S
C61 O68 1.226 . S
O62 Cd58 2.273 . S
O62 Cd60 2.411 . S
O62 C65 1.320 . S
O63 Cd60 2.333 . S
O63 C65 1.214 . S
O64 Cd60 2.352 . S
O64 C67 1.258 . S
C65 O62 1.320 . S
C65 O63 1.214 . S
O66 Cd58 2.277 . S
O66 C61 1.209 . S
C67 O64 1.258 . S
C67 O69 1.282 . S
O68 Cd60 2.277 . S
O68 C61 1.226 . S
O69 Cd60 2.356 . S
O69 C67 1.282 . S
C70 O71 1.306 . S
C70 O73 1.160 . S
O71 C70 1.306 . S
O71 Cd72 2.228 1_655 S
Cd72 O71 2.228 1_455 S
Cd72 O76 2.273 . S
Cd72 O80 2.277 . S
O73 C70 1.160 . S
O73 Cd74 2.203 1_655 S
Cd74 O73 2.203 1_455 S
Cd74 O76 2.411 . S
Cd74 O77 2.333 . S
Cd74 O78 2.352 . S
Cd74 O82 2.277 . S
Cd74 O83 2.356 . S
C75 O80 1.209 . S
C75 O82 1.226 . S
O76 Cd72 2.273 . S
O76 Cd74 2.411 . S
O76 C79 1.320 . S
O77 Cd74 2.333 . S
O77 C79 1.214 . S
O78 Cd74 2.352 . S
O78 C81 1.258 . S
C79 O76 1.320 . S
C79 O77 1.214 . S
O80 Cd72 2.277 . S
O80 C75 1.209 . S
C81 O78 1.258 . S
C81 O83 1.282 . S
O82 Cd74 2.277 . S
O82 C75 1.226 . S
O83 Cd74 2.356 . S
O83 C81 1.282 . S
C84 O85 1.306 . S
C84 O87 1.160 . S
O85 C84 1.306 . S
O85 Cd86 2.228 1_565 S
Cd86 O85 2.228 1_545 S
Cd86 O90 2.273 . S
Cd86 O94 2.277 . S
O87 C84 1.160 . S
O87 Cd88 2.203 1_565 S
Cd88 O87 2.203 1_545 S
Cd88 O90 2.411 . S
Cd88 O91 2.333 . S
Cd88 O92 2.352 . S
Cd88 O96 2.277 . S
Cd88 O97 2.356 . S
C89 O94 1.209 . S
C89 O96 1.226 . S
O90 Cd86 2.273 . S
O90 Cd88 2.411 . S
O90 C93 1.320 . S
O91 Cd88 2.333 . S
O91 C93 1.214 . S
O92 Cd88 2.352 . S
O92 C95 1.258 . S
C93 O90 1.320 . S
C93 O91 1.214 . S
O94 Cd86 2.277 . S
O94 C89 1.209 . S
C95 O92 1.258 . S
C95 O97 1.282 . S
O96 Cd88 2.277 . S
O96 C89 1.226 . S
O97 Cd88 2.356 . S
O97 C95 1.282 . S
C98 O99 1.306 . S
C98 O101 1.160 . S
O99 C98 1.306 . S
O99 Cd100 2.228 . S
Cd100 O99 2.228 . S
Cd100 O104 2.273 . S
Cd100 O108 2.277 . S
O101 C98 1.160 . S
O101 Cd102 2.203 . S
Cd102 O101 2.203 . S
Cd102 O104 2.411 . S
Cd102 O105 2.333 . S
Cd102 O106 2.352 . S
Cd102 O110 2.277 . S
Cd102 O111 2.356 . S
C103 O108 1.209 . S
C103 O110 1.226 . S
O104 Cd100 2.273 . S
O104 Cd102 2.411 . S
O104 C107 1.320 . S
O105 Cd102 2.333 . S
O105 C107 1.214 . S
O106 Cd102 2.352 . S
O106 C109 1.258 . S
C107 O104 1.320 . S
C107 O105 1.214 . S
O108 Cd100 2.277 . S
O108 C103 1.209 . S
C109 O106 1.258 . S
C109 O111 1.282 . S
O110 Cd102 2.277 . S
O110 C103 1.226 . S
O111 Cd102 2.356 . S
O111 C109 1.282 . S
H112 C118 0.930 . S
H113 C122 0.930 1_565 S
H114 C127 0.929 1_565 S
H115 C125 0.929 . S
H116 C120 0.929 1_565 S
H117 C126 0.929 . S
C118 H112 0.930 . S
C118 C119 1.367 . S
C118 C126 1.378 . S
C119 C118 1.367 . S
C119 C127 1.433 . S
C120 H116 0.929 1_545 S
C120 C122 1.378 . S
C120 C124 1.350 . S
C121 C124 1.463 1_554 S
C121 C126 1.350 . S
C121 N129 1.427 . S
C122 H113 0.930 1_545 S
C122 C120 1.378 . S
C122 C123 1.367 . S
C123 C122 1.367 . S
C123 C125 1.433 . S
C124 C120 1.350 . S
C124 C121 1.463 1_556 S
C124 N128 1.427 . S
C125 H115 0.929 . S
C125 C123 1.433 . S
C125 N128 1.384 . S
C126 H117 0.929 . S
C126 C118 1.378 . S
C126 C121 1.350 . S
C127 H114 0.929 1_545 S
C127 C119 1.433 . S
C127 N129 1.384 . S
N128 C124 1.427 . S
N128 C125 1.384 . S
N129 C121 1.427 . S
N129 C127 1.384 . S
H130 C136 0.930 . S
H131 C140 0.930 . S
H132 C145 0.929 . S
H133 C143 0.929 . S
H134 C138 0.929 . S
H135 C144 0.929 . S
C136 H130 0.930 . S
C136 C137 1.367 . S
C136 C144 1.378 . S
C137 C136 1.367 . S
C137 C145 1.433 . S
C138 H134 0.929 . S
C138 C140 1.378 . S
C138 C142 1.350 . S
C139 C142 1.463 . S
C139 C144 1.350 . S
C139 N147 1.427 . S
C140 H131 0.930 . S
C140 C138 1.378 . S
C140 C141 1.367 . S
C141 C140 1.367 . S
C141 C143 1.433 . S
C142 C138 1.350 . S
C142 C139 1.463 . S
C142 N146 1.427 . S
C143 H133 0.929 . S
C143 C141 1.433 . S
C143 N146 1.384 . S
C144 H135 0.929 . S
C144 C136 1.378 . S
C144 C139 1.350 . S
C145 H132 0.929 . S
C145 C137 1.433 . S
C145 N147 1.384 . S
N146 C142 1.427 . S
N146 C143 1.384 . S
N147 C139 1.427 . S
N147 C145 1.384 . S
H148 C154 0.930 1_565 S
H149 C158 0.930 . S
H150 C163 0.929 . S
H151 C161 0.929 1_565 S
H152 C156 0.929 . S
H153 C162 0.929 1_565 S
C154 H148 0.930 1_545 S
C154 C155 1.367 . S
C154 C162 1.378 . S
C155 C154 1.367 . S
C155 C163 1.433 . S
C156 H152 0.929 . S
C156 C158 1.378 . S
C156 C160 1.350 . S
C157 C160 1.463 1_556 S
C157 C162 1.350 . S
C157 N165 1.427 . S
C158 H149 0.930 . S
C158 C156 1.378 . S
C158 C159 1.367 . S
C159 C158 1.367 . S
C159 C161 1.433 . S
C160 C156 1.350 . S
C160 C157 1.463 1_554 S
C160 N164 1.427 . S
C161 H151 0.929 1_545 S
C161 C159 1.433 . S
C161 N164 1.384 . S
C162 H153 0.929 1_545 S
C162 C154 1.378 . S
C162 C157 1.350 . S
C163 H150 0.929 . S
C163 C155 1.433 . S
C163 N165 1.384 . S
N164 C160 1.427 . S
N164 C161 1.384 . S
N165 C157 1.427 . S
N165 C163 1.384 . S
H166 C172 0.930 . S
H167 C176 0.930 1_655 S
H168 C181 0.929 1_655 S
H169 C179 0.929 . S
H170 C174 0.929 1_655 S
H171 C180 0.929 . S
C172 H166 0.930 . S
C172 C173 1.367 . S
C172 C180 1.378 . S
C173 C172 1.367 . S
C173 C181 1.433 . S
C174 H170 0.929 1_455 S
C174 C176 1.378 . S
C174 C178 1.350 . S
C175 C178 1.463 . S
C175 C180 1.350 . S
C175 N183 1.427 . S
C176 H167 0.930 1_455 S
C176 C174 1.378 . S
C176 C177 1.367 . S
C177 C176 1.367 . S
C177 C179 1.433 . S
C178 C174 1.350 . S
C178 C175 1.463 . S
C178 N182 1.427 . S
C179 H169 0.929 . S
C179 C177 1.433 . S
C179 N182 1.384 . S
C180 H171 0.929 . S
C180 C172 1.378 . S
C180 C175 1.350 . S
C181 H168 0.929 1_455 S
C181 C173 1.433 . S
C181 N183 1.384 . S
N182 C178 1.427 . S
N182 C179 1.384 . S
N183 C175 1.427 . S
N183 C181 1.384 . S
H184 C190 0.933 . S
H185 C194 0.930 . S
H186 C199 0.929 . S
H187 C197 0.929 . S
H188 C192 0.929 . S
H189 C198 0.929 . S
C190 H184 0.933 . S
C190 C191 1.367 . S
C190 C198 1.378 . S
C191 C190 1.367 . S
C191 C199 1.433 . S
C192 H188 0.929 . S
C192 C194 1.378 . S
C192 C196 1.350 . S
C193 C196 1.463 . S
C193 C198 1.350 . S
C193 N201 1.427 . S
C194 H185 0.930 . S
C194 C192 1.378 . S
C194 C195 1.367 . S
C195 C194 1.367 . S
C195 C197 1.433 . S
C196 C192 1.350 . S
C196 C193 1.463 . S
C196 N200 1.427 . S
C197 H187 0.929 . S
C197 C195 1.433 . S
C197 N200 1.384 . S
C198 H189 0.929 . S
C198 C190 1.378 . S
C198 C193 1.350 . S
C199 H186 0.929 . S
C199 C191 1.433 . S
C199 N201 1.384 . S
N200 C196 1.427 . S
N200 C197 1.384 . S
N201 C193 1.427 . S
N201 C199 1.384 . S
H202 C208 0.930 . S
H203 C212 0.930 . S
H204 C217 0.929 . S
H205 C215 0.929 . S
H206 C210 0.929 . S
H207 C216 0.929 . S
C208 H202 0.930 . S
C208 C209 1.367 . S
C208 C216 1.378 . S
C209 C208 1.367 . S
C209 C217 1.433 . S
C210 H206 0.929 . S
C210 C212 1.378 . S
C210 C214 1.350 . S
C211 C214 1.463 . S
C211 C216 1.350 . S
C211 N219 1.427 . S
C212 H203 0.930 . S
C212 C210 1.378 . S
C212 C213 1.367 . S
C213 C212 1.367 . S
C213 C215 1.433 . S
C214 C210 1.350 . S
C214 C211 1.463 . S
C214 N218 1.427 . S
C215 H205 0.929 . S
C215 C213 1.433 . S
C215 N218 1.384 . S
C216 H207 0.929 . S
C216 C208 1.378 . S
C216 C211 1.350 . S
C217 H204 0.929 . S
C217 C209 1.433 . S
C217 N219 1.384 . S
N218 C214 1.427 . S
N218 C215 1.384 . S
N219 C211 1.427 . S
N219 C217 1.384 . S
H220 C226 0.930 . S
H221 C230 0.930 . S
H222 C235 0.929 . S
H223 C233 0.929 . S
H224 C228 0.929 . S
H225 C234 0.929 . S
C226 H220 0.930 . S
C226 C227 1.367 . S
C226 C234 1.378 . S
C227 C226 1.367 . S
C227 C235 1.433 . S
C228 H224 0.929 . S
C228 C230 1.378 . S
C228 C232 1.350 . S
C229 C232 1.463 . S
C229 C234 1.350 . S
C229 N237 1.427 . S
C230 H221 0.930 . S
C230 C228 1.378 . S
C230 C231 1.367 . S
C231 C230 1.367 . S
C231 C233 1.433 . S
C232 C228 1.350 . S
C232 C229 1.463 . S
C232 N236 1.427 . S
C233 H223 0.929 . S
C233 C231 1.433 . S
C233 N236 1.384 . S
C234 H225 0.929 . S
C234 C226 1.378 . S
C234 C229 1.350 . S
C235 H222 0.929 . S
C235 C227 1.433 . S
C235 N237 1.384 . S
N236 C232 1.427 . S
N236 C233 1.384 . S
N237 C229 1.427 . S
N237 C235 1.384 . S
H238 C244 0.923 1_655 S
H239 C248 0.930 . S
H240 C253 0.929 . S
H241 C251 0.929 . S
H242 C246 0.929 . S
H243 C252 0.929 1_655 S
C244 H238 0.923 1_455 S
C244 C245 1.372 . S
C244 C252 1.380 . S
C245 C244 1.372 . S
C245 C253 1.433 . S
C246 H242 0.929 . S
C246 C248 1.378 . S
C246 C250 1.350 . S
C247 C250 1.463 . S
C247 C252 1.350 . S
C247 N255 1.427 . S
C248 H239 0.930 . S
C248 C246 1.378 . S
C248 C249 1.367 . S
C249 C248 1.367 . S
C249 C251 1.433 . S
C250 C246 1.350 . S
C250 C247 1.463 . S
C250 N254 1.427 . S
C251 H241 0.929 . S
C251 C249 1.433 . S
C251 N254 1.384 . S
C252 H243 0.929 1_455 S
C252 C244 1.380 . S
C252 C247 1.350 . S
C253 H240 0.929 . S
C253 C245 1.433 . S
C253 N255 1.384 . S
N254 C250 1.427 . S
N254 C251 1.384 . S
N255 C247 1.427 . S
N255 C253 1.384 . S
H256 C262 0.930 . S
H257 C266 0.930 . S
H258 C271 0.929 . S
H259 C269 0.929 . S
H260 C264 0.929 . S
H261 C270 0.929 . S
C262 H256 0.930 . S
C262 C263 1.367 . S
C262 C270 1.378 . S
C263 C262 1.367 . S
C263 C271 1.433 . S
C264 H260 0.929 . S
C264 C266 1.378 . S
C264 C268 1.350 . S
C265 C268 1.463 . S
C265 C270 1.350 . S
C265 N273 1.427 . S
C266 H257 0.930 . S
C266 C264 1.378 . S
C266 C267 1.367 . S
C267 C266 1.367 . S
C267 C269 1.433 . S
C268 C264 1.350 . S
C268 C265 1.463 . S
C268 N272 1.427 . S
C269 H259 0.929 . S
C269 C267 1.433 . S
C269 N272 1.384 . S
C270 H261 0.929 . S
C270 C262 1.378 . S
C270 C265 1.350 . S
C271 H258 0.929 . S
C271 C263 1.433 . S
C271 N273 1.384 . S
N272 C268 1.427 . S
N272 C269 1.384 . S
N273 C265 1.427 . S
N273 C271 1.384 . S
H274 C280 0.930 . S
H275 C284 0.930 . S
H276 C289 0.929 . S
H277 C287 0.929 . S
H278 C282 0.929 . S
H279 C288 0.929 . S
C280 H274 0.930 . S
C280 C281 1.367 . S
C280 C288 1.378 . S
C281 C280 1.367 . S
C281 C289 1.433 . S
C282 H278 0.929 . S
C282 C284 1.378 . S
C282 C286 1.350 . S
C283 C286 1.463 . S
C283 C288 1.350 . S
C283 N291 1.427 . S
C284 H275 0.930 . S
C284 C282 1.378 . S
C284 C285 1.367 . S
C285 C284 1.367 . S
C285 C287 1.433 . S
C286 C282 1.350 . S
C286 C283 1.463 . S
C286 N290 1.427 . S
C287 H277 0.929 . S
C287 C285 1.433 . S
C287 N290 1.384 . S
C288 H279 0.929 . S
C288 C280 1.378 . S
C288 C283 1.350 . S
C289 H276 0.929 . S
C289 C281 1.433 . S
C289 N291 1.384 . S
N290 C286 1.427 . S
N290 C287 1.384 . S
N291 C283 1.427 . S
N291 C289 1.384 . S
H292 C298 0.930 1_455 S
H293 C302 0.930 . S
H294 C307 0.929 . S
H295 C305 0.929 1_545 S
H296 C300 0.929 . S
H297 C306 0.929 . S
C298 H292 0.930 1_655 S
C298 C299 1.367 . S
C298 C306 1.378 . S
C299 C298 1.367 . S
C299 C307 1.433 . S
C300 H296 0.929 . S
C300 C302 1.378 . S
C300 C304 1.350 . S
C301 C304 1.463 . S
C301 C306 1.350 . S
C301 N309 1.427 . S
C302 H293 0.930 . S
C302 C300 1.378 . S
C302 C303 1.367 . S
C303 C302 1.367 . S
C303 C305 1.433 . S
C304 C300 1.350 . S
C304 C301 1.463 . S
C304 N308 1.427 . S
C305 H295 0.929 1_565 S
C305 C303 1.433 . S
C305 N308 1.384 . S
C306 H297 0.929 . S
C306 C298 1.378 . S
C306 C301 1.350 . S
C307 H294 0.929 . S
C307 C299 1.433 . S
C307 N309 1.384 . S
N308 C304 1.427 . S
N308 C305 1.384 . S
N309 C301 1.427 . S
N309 C307 1.384 . S
H310 C316 0.930 . S
H311 C320 0.930 . S
H312 C325 0.929 . S
H313 C323 0.929 . S
H314 C318 0.929 . S
H315 C324 0.929 . S
C316 H310 0.930 . S
C316 C317 1.367 . S
C316 C324 1.378 . S
C317 C316 1.367 . S
C317 C325 1.433 . S
C318 H314 0.929 . S
C318 C320 1.378 . S
C318 C322 1.350 . S
C319 C322 1.463 . S
C319 C324 1.350 . S
C319 N327 1.427 . S
C320 H311 0.930 . S
C320 C318 1.378 . S
C320 C321 1.367 . S
C321 C320 1.367 . S
C321 C323 1.433 . S
C322 C318 1.350 . S
C322 C319 1.463 . S
C322 N326 1.427 . S
C323 H313 0.929 . S
C323 C321 1.433 . S
C323 N326 1.384 . S
C324 H315 0.929 . S
C324 C316 1.378 . S
C324 C319 1.350 . S
C325 H312 0.929 . S
C325 C317 1.433 . S
C325 N327 1.384 . S
N326 C322 1.427 . S
N326 C323 1.384 . S
N327 C319 1.427 . S
N327 C325 1.384 . S
H328 C334 0.930 . S
H329 C338 0.930 . S
H330 C343 0.929 . S
H331 C341 0.929 . S
H332 C336 0.929 . S
H333 C342 0.929 . S
C334 H328 0.930 . S
C334 C335 1.367 . S
C334 C342 1.378 . S
C335 C334 1.367 . S
C335 C343 1.433 . S
C336 H332 0.929 . S
C336 C338 1.378 . S
C336 C340 1.350 . S
C337 C340 1.463 . S
C337 C342 1.350 . S
C337 N345 1.427 . S
C338 H329 0.930 . S
C338 C336 1.378 . S
C338 C339 1.367 . S
C339 C338 1.367 . S
C339 C341 1.433 . S
C340 C336 1.350 . S
C340 C337 1.463 . S
C340 N344 1.427 . S
C341 H331 0.929 . S
C341 C339 1.433 . S
C341 N344 1.384 . S
C342 H333 0.929 . S
C342 C334 1.378 . S
C342 C337 1.350 . S
C343 H330 0.929 . S
C343 C335 1.433 . S
C343 N345 1.384 . S
N344 C340 1.427 . S
N344 C341 1.384 . S
N345 C337 1.427 . S
N345 C343 1.384 . S
H346 C352 0.930 . S
H347 C356 0.930 . S
H348 C361 0.929 . S
H349 C359 0.929 . S
H350 C354 0.929 . S
H351 C360 0.929 . S
C352 H346 0.930 . S
C352 C353 1.367 . S
C352 C360 1.378 . S
C353 C352 1.367 . S
C353 C361 1.433 . S
C354 H350 0.929 . S
C354 C356 1.378 . S
C354 C358 1.350 . S
C355 C358 1.463 . S
C355 C360 1.350 . S
C355 N363 1.427 . S
C356 H347 0.930 . S
C356 C354 1.378 . S
C356 C357 1.367 . S
C357 C356 1.367 . S
C357 C359 1.433 . S
C358 C354 1.350 . S
C358 C355 1.463 . S
C358 N362 1.427 . S
C359 H349 0.929 . S
C359 C357 1.433 . S
C359 N362 1.384 . S
C360 H351 0.929 . S
C360 C352 1.378 . S
C360 C355 1.350 . S
C361 H348 0.929 . S
C361 C353 1.433 . S
C361 N363 1.384 . S
N362 C358 1.427 . S
N362 C359 1.384 . S
N363 C355 1.427 . S
N363 C361 1.384 . S
H364 C370 0.930 . S
H365 C374 0.930 . S
H366 C379 0.929 . S
H367 C377 0.929 . S
H368 C372 0.929 . S
H369 C378 0.929 . S
C370 H364 0.930 . S
C370 C371 1.367 . S
C370 C378 1.378 . S
C371 C370 1.367 . S
C371 C379 1.433 . S
C372 H368 0.929 . S
C372 C374 1.378 . S
C372 C376 1.350 . S
C373 C376 1.463 . S
C373 C378 1.350 . S
C373 N381 1.427 . S
C374 H365 0.930 . S
C374 C372 1.378 . S
C374 C375 1.367 . S
C375 C374 1.367 . S
C375 C377 1.433 . S
C376 C372 1.350 . S
C376 C373 1.463 . S
C376 N380 1.427 . S
C377 H367 0.929 . S
C377 C375 1.433 . S
C377 N380 1.384 . S
C378 H369 0.929 . S
C378 C370 1.378 . S
C378 C373 1.350 . S
C379 H366 0.929 . S
C379 C371 1.433 . S
C379 N381 1.384 . S
N380 C376 1.427 . S
N380 C377 1.384 . S
N381 C373 1.427 . S
N381 C379 1.384 . S
H382 C388 0.930 . S
H383 C392 0.930 . S
H384 C397 0.929 . S
H385 C395 0.929 . S
H386 C390 0.929 . S
H387 C396 0.929 . S
C388 H382 0.930 . S
C388 C389 1.367 . S
C388 C396 1.378 . S
C389 C388 1.367 . S
C389 C397 1.433 . S
C390 H386 0.929 . S
C390 C392 1.378 . S
C390 C394 1.350 . S
C391 C394 1.463 . S
C391 C396 1.350 . S
C391 N399 1.427 . S
C392 H383 0.930 . S
C392 C390 1.378 . S
C392 C393 1.367 . S
C393 C392 1.367 . S
C393 C395 1.433 . S
C394 C390 1.350 . S
C394 C391 1.463 . S
C394 N398 1.427 . S
C395 H385 0.929 . S
C395 C393 1.433 . S
C395 N398 1.384 . S
C396 H387 0.929 . S
C396 C388 1.378 . S
C396 C391 1.350 . S
C397 H384 0.929 . S
C397 C389 1.433 . S
C397 N399 1.384 . S
N398 C394 1.427 . S
N398 C395 1.384 . S
N399 C391 1.427 . S
N399 C397 1.384 . S
C119 C9 1.578 . S
C123 C65 1.579 . S
C137 C23 1.580 . S
C141 C79 1.577 . S
C155 C93 1.577 . S
C159 C37 1.575 . S
C173 C107 1.576 . S
C177 C51 1.576 . S
C191 C11 1.272 . S
C195 C39 1.267 . S
C209 C25 1.270 . S
C213 C53 1.264 . S
C227 C95 1.262 . S
C231 C67 1.267 . S
C245 C81 1.273 . S
C249 C109 1.271 . S
C263 C75 1.531 . S
C267 C5 1.532 . S
C281 C19 1.533 1_655 S
C285 C89 1.531 . S
C299 C103 1.532 1_655 S
C303 C33 1.534 1_565 S
C317 C47 1.535 . S
C321 C61 1.533 1_565 S
C335 C84 1.114 . S
C339 C42 1.116 . S
C353 C0 1.100 . S
C357 C98 1.100 . S
C371 C14 1.117 . S
C375 C56 1.111 . S
C389 C70 1.100 . S
C393 C28 1.114 . S
