# Generated by pormake.
# Topology dft, (4)-cn, num edge types: 1
# Building blocks:
#     Node 0, Type 0, BuildingBlock: CEKHIL_clean_sbu_0, # of connection points: 4
#     Node 1, Type 0, BuildingBlock: CEKHIL_clean_sbu_0, # of connection points: 4
#     Node 2, Type 0, BuildingBlock: CEKHIL_clean_sbu_0, # of connection points: 4
#     Node 3, Type 0, BuildingBlock: CEKHIL_clean_sbu_0, # of connection points: 4
#     Node 4, Type 0, BuildingBlock: CEKHIL_clean_sbu_0, # of connection points: 4
#     Node 5, Type 0, BuildingBlock: CEKHIL_clean_sbu_0, # of connection points: 4
#     Node 6, Type 0, BuildingBlock: CEKHIL_clean_sbu_0, # of connection points: 4
#     Node 7, Type 0, BuildingBlock: CEKHIL_clean_sbu_0, # of connection points: 4
#     Edge 8, Type (0, 0), BuildingBlock: AJUNOK_clean_linker_0, # of connection points: 2
#     Edge 9, Type (0, 0), BuildingBlock: AJUNOK_clean_linker_0, # of connection points: 2
#     Edge 10, Type (0, 0), BuildingBlock: AJUNOK_clean_linker_0, # of connection points: 2
#     Edge 11, Type (0, 0), BuildingBlock: AJUNOK_clean_linker_0, # of connection points: 2
#     Edge 12, Type (0, 0), BuildingBlock: AJUNOK_clean_linker_0, # of connection points: 2
#     Edge 13, Type (0, 0), BuildingBlock: AJUNOK_clean_linker_0, # of connection points: 2
#     Edge 14, Type (0, 0), BuildingBlock: AJUNOK_clean_linker_0, # of connection points: 2
#     Edge 15, Type (0, 0), BuildingBlock: AJUNOK_clean_linker_0, # of connection points: 2
#     Edge 16, Type (0, 0), BuildingBlock: AJUNOK_clean_linker_0, # of connection points: 2
#     Edge 17, Type (0, 0), BuildingBlock: AJUNOK_clean_linker_0, # of connection points: 2
#     Edge 18, Type (0, 0), BuildingBlock: AJUNOK_clean_linker_0, # of connection points: 2
#     Edge 19, Type (0, 0), BuildingBlock: AJUNOK_clean_linker_0, # of connection points: 2
#     Edge 20, Type (0, 0), BuildingBlock: AJUNOK_clean_linker_0, # of connection points: 2
#     Edge 21, Type (0, 0), BuildingBlock: AJUNOK_clean_linker_0, # of connection points: 2
#     Edge 22, Type (0, 0), BuildingBlock: AJUNOK_clean_linker_0, # of connection points: 2
#     Edge 23, Type (0, 0), BuildingBlock: AJUNOK_clean_linker_0, # of connection points: 2
# Relax obj value: 0.181
# Max RMSD: 0.171
# Mean RMSD: 0.171
data_MOF--net-dft--node1-CEKHIL_clean_sbu_0--edge1-AJUNOK_clean_linker_0
_symmetry_space_group_name_H-M    P1
_symmetry_Int_Tables_number       1
_symmetry_cell_setting            triclinic
loop_
_symmetry_equiv_pos_as_xyz
'x, y, z'
_cell_length_a     24.662446
_cell_length_b     24.680686
_cell_length_c     30.006712
_cell_angle_alpha  90.017829
_cell_angle_beta   89.99727
_cell_angle_gamma 90.04355
loop_
_atom_site_label
_atom_site_type_symbol
_atom_site_fract_x
_atom_site_fract_y
_atom_site_fract_z
_atom_type_partial_charge
Co0 Co 0.36775 0.05607 0.18527 0.0
O1 O 0.43657 0.02023 0.17793 0.0
O2 O 0.42636 0.1026 0.20558 0.0
C3 C 0.32416 0.98335 0.21316 0.0
O4 O 0.3026 0.10523 0.20086 0.0
Co5 Co 0.26421 0.01514 0.13547 0.0
O6 O 0.22625 0.06381 0.17762 0.0
C7 C 0.35921 0.05755 0.08758 0.0
C8 C 0.45894 0.06343 0.19434 0.0
C9 C 0.25035 0.10043 0.20015 0.0
O10 O 0.37396 0.08428 0.12242 0.0
O11 O 0.32019 0.0234 0.08779 0.0
O12 O 0.35327 0.01362 0.23959 0.0
O13 O 0.32566 0.99639 0.17193 0.0
Co14 Co 0.0901 0.36531 0.68409 0.0
O15 O 0.12595 0.43482 0.67858 0.0
O16 O 0.04277 0.42286 0.7041 0.0
C17 C 0.16154 0.32052 0.71281 0.0
O18 O 0.03972 0.30058 0.69761 0.0
Co19 Co 0.13003 0.26175 0.6345 0.0
O20 O 0.07332 0.22331 0.66896 0.0
C21 C 0.09113 0.3578 0.58636 0.0
C22 C 0.08156 0.45629 0.69377 0.0
C23 C 0.03814 0.24864 0.69206 0.0
O24 O 0.06383 0.37277 0.62082 0.0
O25 O 0.12514 0.31871 0.58728 0.0
O26 O 0.13079 0.34947 0.73899 0.0
O27 O 0.14981 0.32281 0.67132 0.0
Co28 Co 0.78563 0.09054 0.18265 0.0
O29 O 0.71663 0.12741 0.17685 0.0
O30 O 0.72751 0.04482 0.20382 0.0
C31 C 0.83231 0.16142 0.21009 0.0
O32 O 0.84931 0.03955 0.19717 0.0
Co33 Co 0.88976 0.12593 0.13184 0.0
O34 O 0.92727 0.06856 0.16621 0.0
C35 C 0.79169 0.08982 0.08514 0.0
C36 C 0.69461 0.08383 0.19312 0.0
C37 C 0.901 0.03581 0.19093 0.0
O38 O 0.77716 0.06277 0.11984 0.0
O39 O 0.83176 0.12271 0.08529 0.0
O40 O 0.80246 0.13211 0.23672 0.0
O41 O 0.82961 0.14896 0.16871 0.0
Co42 Co 0.0519 0.78293 0.68191 0.0
O43 O 0.01542 0.71413 0.67537 0.0
O44 O 0.09842 0.72431 0.70179 0.0
C45 C 0.97997 0.82716 0.7107 0.0
O46 O 0.10232 0.84738 0.69663 0.0
Co47 Co 0.01174 0.88739 0.63341 0.0
O48 O 0.06154 0.92466 0.67526 0.0
C49 C 0.05264 0.7926 0.58403 0.0
C50 C 0.0589 0.69175 0.69128 0.0
C51 C 0.09881 0.89966 0.69633 0.0
O52 O 0.07887 0.77638 0.61869 0.0
O53 O 0.0195 0.83245 0.58477 0.0
O54 O 0.01059 0.79796 0.73675 0.0
O55 O 0.9923 0.82564 0.6693 0.0
Co56 Co 0.36042 0.09178 0.80835 0.0
O57 O 0.42924 0.12834 0.81352 0.0
O58 O 0.41898 0.04384 0.79061 0.0
C59 C 0.31625 0.16136 0.77634 0.0
O60 O 0.29553 0.04106 0.7956 0.0
Co61 Co 0.25682 0.13552 0.85595 0.0
O62 O 0.2188 0.08257 0.81735 0.0
C63 C 0.35172 0.09737 0.90626 0.0
C64 C 0.45158 0.08387 0.79959 0.0
C65 C 0.24318 0.04443 0.79683 0.0
O66 O 0.36698 0.06882 0.87256 0.0
O67 O 0.3124 0.13107 0.90434 0.0
O68 O 0.34585 0.12932 0.75181 0.0
O69 O 0.31792 0.15221 0.81833 0.0
Co70 Co 0.05858 0.36217 0.307 0.0
O71 O 0.02287 0.43135 0.31039 0.0
O72 O 0.10799 0.41977 0.28942 0.0
C73 C 0.98952 0.31813 0.27405 0.0
O74 O 0.10815 0.29583 0.29652 0.0
Co75 Co 0.01013 0.262 0.3565 0.0
O76 O 0.06396 0.22163 0.32046 0.0
C77 C 0.04971 0.35732 0.40502 0.0
C78 C 0.06801 0.45293 0.29712 0.0
C79 C 0.10315 0.24371 0.29949 0.0
O80 O 0.0799 0.36994 0.37155 0.0
O81 O 0.01454 0.31927 0.40352 0.0
O82 O 0.02279 0.34674 0.2498 0.0
O83 O 0.99696 0.32123 0.31621 0.0
Co84 Co 0.77872 0.05443 0.80572 0.0
O85 O 0.70972 0.01772 0.8129 0.0
O86 O 0.72001 0.10129 0.7879 0.0
C87 C 0.82331 0.98455 0.77445 0.0
O88 O 0.84168 0.10592 0.79029 0.0
Co89 Co 0.88593 0.01622 0.85075 0.0
O90 O 0.92165 0.0707 0.81198 0.0
C91 C 0.79176 0.05261 0.90317 0.0
C92 C 0.68731 0.06205 0.79848 0.0
C93 C 0.89398 0.1064 0.79148 0.0
O94 O 0.7739 0.07958 0.86948 0.0
O95 O 0.83214 0.02024 0.90062 0.0
O96 O 0.79223 0.01512 0.74988 0.0
O97 O 0.82307 0.99521 0.81627 0.0
Co98 Co 0.09739 0.77967 0.30475 0.0
O99 O 0.13399 0.71079 0.3125 0.0
O100 O 0.05113 0.721 0.2858 0.0
C101 C 0.16777 0.82464 0.27487 0.0
O102 O 0.0465 0.84254 0.28836 0.0
Co103 Co 0.13377 0.88647 0.35121 0.0
O104 O 0.07675 0.9223 0.31511 0.0
C105 C 0.09619 0.79214 0.40229 0.0
C106 C 0.09014 0.68837 0.297 0.0
C107 C 0.04344 0.89455 0.29207 0.0
O108 O 0.07016 0.77466 0.36795 0.0
O109 O 0.12911 0.83214 0.40056 0.0
O110 O 0.13806 0.79333 0.24975 0.0
O111 O 0.15624 0.82419 0.31656 0.0
C112 C 0.37805 0.12286 0.02729 0.0
C113 C 0.38177 0.06986 0.04354 0.0
C114 C 0.37481 0.1322 0.98139 0.0
C115 C 0.37545 0.08883 0.95073 0.0
H116 H 0.37109 0.15637 0.04992 0.0
H117 H 0.36658 0.17309 0.9701 0.0
S118 S 0.40003 0.9445 0.97716 0.0
N119 N 0.39768 0.97501 0.02613 0.0
N120 N 0.39175 0.99271 0.9396 0.0
C121 C 0.38759 0.03683 0.96647 0.0
C122 C 0.39066 0.02732 0.01318 0.0
C123 C 0.12325 0.38304 0.51115 0.0
C124 C 0.08025 0.38077 0.54207 0.0
C125 C 0.11325 0.38312 0.46527 0.0
C126 C 0.05995 0.38054 0.44931 0.0
H127 H 0.16483 0.3792 0.52239 0.0
H128 H 0.14722 0.37881 0.44264 0.0
S129 S 0.93388 0.38971 0.51629 0.0
N130 N 0.98308 0.38789 0.55361 0.0
N131 N 0.96401 0.38805 0.46713 0.0
C132 C 0.01692 0.38661 0.47976 0.0
C133 C 0.02715 0.38683 0.52644 0.0
C134 C 0.77006 0.0174 0.97835 0.0
C135 C 0.76957 0.06119 0.94814 0.0
C136 C 0.76891 0.02618 0.02441 0.0
C137 C 0.76769 0.07905 0.04129 0.0
H138 H 0.77658 0.97647 0.96642 0.0
H139 H 0.77552 0.99211 0.04652 0.0
S140 S 0.75166 0.20593 0.97652 0.0
N141 N 0.75657 0.15796 0.93832 0.0
N142 N 0.7548 0.17468 0.02514 0.0
C143 C 0.75929 0.12234 0.01156 0.0
C144 C 0.76008 0.11335 0.96469 0.0
C145 C 0.12796 0.76963 0.47832 0.0
C146 C 0.08524 0.77052 0.44707 0.0
C147 C 0.11752 0.76908 0.52416 0.0
C148 C 0.06404 0.76994 0.53979 0.0
H149 H 0.16955 0.77446 0.46733 0.0
H150 H 0.15109 0.77422 0.54708 0.0
S151 S 0.9388 0.75904 0.47197 0.0
N152 N 0.98831 0.76173 0.43496 0.0
N153 N 0.96844 0.76106 0.52132 0.0
C154 C 0.02144 0.76336 0.50902 0.0
C155 C 0.03211 0.76348 0.46239 0.0
C156 C 0.54417 0.11922 0.19642 0.0
C157 C 0.51886 0.06814 0.19789 0.0
C158 C 0.60101 0.12401 0.19551 0.0
C159 C 0.63473 0.07797 0.19694 0.0
H160 H 0.51994 0.15573 0.1945 0.0
H161 H 0.61862 0.16414 0.19327 0.0
S162 S 0.58845 0.935 0.20395 0.0
N163 N 0.53189 0.97067 0.20258 0.0
N164 N 0.63825 0.97964 0.20178 0.0
C165 C 0.60983 0.02676 0.2 0.0
C166 C 0.55207 0.02187 0.2002 0.0
C167 C 0.12051 0.55035 0.69566 0.0
C168 C 0.07476 0.51613 0.69658 0.0
C169 C 0.11513 0.60708 0.69546 0.0
C170 C 0.06376 0.63187 0.69529 0.0
H171 H 0.16092 0.53321 0.69471 0.0
H172 H 0.15153 0.63161 0.69411 0.0
S173 S 0.93106 0.56082 0.69911 0.0
N174 N 0.97629 0.51155 0.69894 0.0
N175 N 0.96621 0.61775 0.69769 0.0
C176 C 0.0177 0.59817 0.69697 0.0
C177 C 0.02319 0.54048 0.69788 0.0
C178 C 0.59329 0.02251 0.79897 0.0
C179 C 0.62733 0.06825 0.79599 0.0
C180 C 0.53649 0.02764 0.79864 0.0
C181 C 0.5115 0.0788 0.79612 0.0
H182 H 0.61061 0.98234 0.80185 0.0
H183 H 0.51204 0.99134 0.80164 0.0
S184 S 0.58197 0.21122 0.786 0.0
N185 N 0.63145 0.16637 0.78877 0.0
N186 N 0.52519 0.17597 0.78891 0.0
C187 C 0.54501 0.12476 0.79239 0.0
C188 C 0.60274 0.11951 0.79211 0.0
C189 C 0.12466 0.53768 0.29746 0.0
C190 C 0.0736 0.51271 0.29326 0.0
C191 C 0.12978 0.59447 0.29815 0.0
C192 C 0.08415 0.62845 0.29392 0.0
H193 H 0.16077 0.51325 0.30163 0.0
H194 H 0.1698 0.61181 0.30242 0.0
S195 S 0.94167 0.58303 0.27902 0.0
N196 N 0.97679 0.52633 0.28284 0.0
N197 N 0.9864 0.6325 0.28346 0.0
C198 C 0.0331 0.60385 0.2882 0.0
C199 C 0.02784 0.54618 0.28807 0.0
C200 C 0.19118 0.22665 0.25718 0.0
C201 C 0.14273 0.20679 0.27637 0.0
C202 C 0.2271 0.19219 0.23373 0.0
C203 C 0.21547 0.13673 0.22785 0.0
H204 H 0.20131 0.26922 0.25996 0.0
H205 H 0.26332 0.20941 0.21902 0.0
S206 S 0.09608 0.06303 0.27302 0.0
N207 N 0.08698 0.12637 0.28883 0.0
N208 N 0.15369 0.06298 0.24517 0.0
C209 C 0.16797 0.11619 0.24763 0.0
C210 C 0.13188 0.15076 0.27169 0.0
C211 C 0.9757 0.23073 0.75721 0.0
C212 C 0.99534 0.21585 0.71476 0.0
C213 C 0.94097 0.19621 0.78158 0.0
C214 C 0.92401 0.14615 0.76397 0.0
H215 H 0.98924 0.26807 0.77259 0.0
H216 H 0.92872 0.20794 0.81487 0.0
S217 S 0.95898 0.0903 0.65313 0.0
N218 N 0.99164 0.14871 0.65535 0.0
N219 N 0.92643 0.08479 0.701 0.0
C220 C 0.94125 0.13194 0.72103 0.0
C221 C 0.97681 0.16655 0.69644 0.0
C222 C 0.96143 0.95442 0.28652 0.0
C223 C 1.00261 0.92437 0.26549 0.0
C224 C 0.92634 0.98793 0.26176 0.0
C225 C 0.93247 0.9939 0.21534 0.0
H226 H 0.95703 0.95278 0.32241 0.0
H227 H 0.89601 0.01139 0.27934 0.0
S228 S 0.03401 0.92363 0.14479 0.0
N229 N 0.04656 0.90146 0.19569 0.0
N230 N 0.98243 0.96596 0.14944 0.0
C231 C 0.97314 0.96347 0.19402 0.0
C232 C 1.00775 0.92834 0.21903 0.0
C233 C 0.11937 0.98343 0.73977 0.0
C234 C 0.13749 0.93346 0.72281 0.0
C235 C 0.15369 0.0178 0.76392 0.0
C236 C 0.20843 1.00454 0.77211 0.0
H237 H 0.07786 0.99633 0.73453 0.0
H238 H 0.13692 0.05576 0.77566 0.0
S239 S 0.27661 0.87815 0.73497 0.0
N240 N 0.2139 0.87185 0.71623 0.0
N241 N 0.27909 0.93704 0.76113 0.0
C242 C 0.22734 0.9545 0.75546 0.0
C243 C 0.19178 0.91884 0.73115 0.0
C244 C 0.89517 0.91523 0.78685 0.0
C245 C 0.86101 0.94321 0.75689 0.0
C246 C 0.93277 0.87686 0.77195 0.0
C247 C 0.9376 0.86487 0.72652 0.0
H248 H 0.89341 0.92328 0.82229 0.0
H249 H 0.95879 0.85724 0.79614 0.0
S250 S 0.85531 0.92403 0.6346 0.0
N251 N 0.83304 0.95461 0.67994 0.0
N252 N 0.90295 0.88191 0.65159 0.0
C253 C 0.90269 0.89148 0.69622 0.0
C254 C 0.86459 0.9308 0.71147 0.0
C255 C 0.27522 0.93439 0.27385 0.0
C256 C 0.28674 0.94046 0.22844 0.0
C257 C 0.23712 0.89622 0.2883 0.0
C258 C 0.20903 0.86276 0.25788 0.0
H259 H 0.29498 0.95986 0.29838 0.0
H260 H 0.22934 0.89348 0.32375 0.0
S261 S 0.22673 0.86062 0.13535 0.0
N262 N 0.26899 0.90787 0.15297 0.0
N263 N 0.19677 0.83694 0.18049 0.0
C264 C 0.22094 0.86762 0.21245 0.0
C265 C 0.25996 0.90627 0.19766 0.0
C266 C 0.20848 0.27061 0.77397 0.0
C267 C 0.20345 0.28229 0.72852 0.0
C268 C 0.24561 0.23181 0.78882 0.0
C269 C 0.27898 0.203 0.75879 0.0
H270 H 0.18303 0.29085 0.79822 0.0
H271 H 0.2476 0.22411 0.8243 0.0
S272 S 0.28426 0.22133 0.63642 0.0
N273 N 0.23737 0.26427 0.65347 0.0
N274 N 0.30631 0.19067 0.68179 0.0
C275 C 0.27529 0.21514 0.71335 0.0
C276 C 0.23774 0.25496 0.69813 0.0
C277 C 0.91709 0.24949 0.28615 0.0
C278 C 0.9487 0.28019 0.25612 0.0
C279 C 0.87907 0.21165 0.27111 0.0
C280 C 0.87095 0.2032 0.22546 0.0
H281 H 0.92187 0.25424 0.3218 0.0
H282 H 0.85635 0.18856 0.29549 0.0
S283 S 0.94116 0.27536 0.13295 0.0
N284 N 0.96817 0.30085 0.1787 0.0
N285 N 0.896 0.23053 0.14996 0.0
C286 C 0.9014 0.23456 0.19494 0.0
C287 C 0.94044 0.27287 0.21038 0.0
loop_
_geom_bond_atom_site_label_1
_geom_bond_atom_site_label_2
_geom_bond_distance
_geom_bond_site_symmetry_2
_ccdc_geom_bond_type
Co0 O1 2.216 1_545 S
Co0 O2 2.091 . S
Co0 O4 2.004 . S
Co0 O10 2.021 . S
Co0 O12 2.137 1_545 S
Co0 O13 2.244 1_545 S
O1 Co0 2.216 1_565 S
O1 C8 1.247 1_565 S
O2 Co0 2.091 . S
O2 C8 1.261 . S
C3 O12 1.247 . S
C3 O13 1.272 . S
O4 Co0 2.004 . S
O4 C9 1.259 . S
Co5 O6 2.061 . S
Co5 O11 2.052 . S
Co5 O13 2.135 1_545 S
O6 Co5 2.061 . S
O6 C9 1.235 . S
C7 O10 1.238 . S
C7 O11 1.241 . S
C8 O1 1.247 1_545 S
C8 O2 1.261 . S
C9 O4 1.259 . S
C9 O6 1.235 . S
O10 Co0 2.021 . S
O10 C7 1.238 . S
O11 Co5 2.052 . S
O11 C7 1.241 . S
O12 Co0 2.137 1_565 S
O12 C3 1.247 . S
O13 Co0 2.244 1_565 S
O13 C3 1.272 . S
O13 Co5 2.135 1_565 S
Co14 O15 2.216 . S
Co14 O16 2.091 . S
Co14 O18 2.004 . S
Co14 O24 2.021 . S
Co14 O26 2.137 . S
Co14 O27 2.244 . S
O15 Co14 2.216 . S
O15 C22 1.247 . S
O16 Co14 2.091 . S
O16 C22 1.261 . S
C17 O26 1.247 . S
C17 O27 1.272 . S
O18 Co14 2.004 . S
O18 C23 1.259 . S
Co19 O20 2.061 . S
Co19 O25 2.052 . S
Co19 O27 2.135 . S
O20 Co19 2.061 . S
O20 C23 1.235 . S
C21 O24 1.238 . S
C21 O25 1.241 . S
C22 O15 1.247 . S
C22 O16 1.261 . S
C23 O18 1.259 . S
C23 O20 1.235 . S
O24 Co14 2.021 . S
O24 C21 1.238 . S
O25 Co19 2.052 . S
O25 C21 1.241 . S
O26 Co14 2.137 . S
O26 C17 1.247 . S
O27 Co14 2.244 . S
O27 C17 1.272 . S
O27 Co19 2.135 . S
Co28 O29 2.216 . S
Co28 O30 2.091 . S
Co28 O32 2.004 . S
Co28 O38 2.021 . S
Co28 O40 2.137 . S
Co28 O41 2.244 . S
O29 Co28 2.216 . S
O29 C36 1.247 . S
O30 Co28 2.091 . S
O30 C36 1.261 . S
C31 O40 1.247 . S
C31 O41 1.272 . S
O32 Co28 2.004 . S
O32 C37 1.259 . S
Co33 O34 2.061 . S
Co33 O39 2.052 . S
Co33 O41 2.135 . S
O34 Co33 2.061 . S
O34 C37 1.235 . S
C35 O38 1.238 . S
C35 O39 1.241 . S
C36 O29 1.247 . S
C36 O30 1.261 . S
C37 O32 1.259 . S
C37 O34 1.235 . S
O38 Co28 2.021 . S
O38 C35 1.238 . S
O39 Co33 2.052 . S
O39 C35 1.241 . S
O40 Co28 2.137 . S
O40 C31 1.247 . S
O41 Co28 2.244 . S
O41 C31 1.272 . S
O41 Co33 2.135 . S
Co42 O43 2.216 1_455 S
Co42 O44 2.091 . S
Co42 O46 2.004 . S
Co42 O52 2.021 . S
Co42 O54 2.137 1_455 S
Co42 O55 2.244 1_455 S
O43 Co42 2.216 1_655 S
O43 C50 1.247 1_655 S
O44 Co42 2.091 . S
O44 C50 1.261 . S
C45 O54 1.247 . S
C45 O55 1.272 . S
O46 Co42 2.004 . S
O46 C51 1.259 . S
Co47 O48 2.061 . S
Co47 O53 2.052 . S
Co47 O55 2.135 1_455 S
O48 Co47 2.061 . S
O48 C51 1.235 . S
C49 O52 1.238 . S
C49 O53 1.241 . S
C50 O43 1.247 1_455 S
C50 O44 1.261 . S
C51 O46 1.259 . S
C51 O48 1.235 . S
O52 Co42 2.021 . S
O52 C49 1.238 . S
O53 Co47 2.052 . S
O53 C49 1.241 . S
O54 Co42 2.137 1_655 S
O54 C45 1.247 . S
O55 Co42 2.244 1_655 S
O55 C45 1.272 . S
O55 Co47 2.135 1_655 S
Co56 O57 2.216 . S
Co56 O58 2.091 . S
Co56 O60 2.004 . S
Co56 O66 2.021 . S
Co56 O68 2.137 . S
Co56 O69 2.244 . S
O57 Co56 2.216 . S
O57 C64 1.247 . S
O58 Co56 2.091 . S
O58 C64 1.261 . S
C59 O68 1.247 . S
C59 O69 1.272 . S
O60 Co56 2.004 . S
O60 C65 1.259 . S
Co61 O62 2.061 . S
Co61 O67 2.052 . S
Co61 O69 2.135 . S
O62 Co61 2.061 . S
O62 C65 1.235 . S
C63 O66 1.238 . S
C63 O67 1.241 . S
C64 O57 1.247 . S
C64 O58 1.261 . S
C65 O60 1.259 . S
C65 O62 1.235 . S
O66 Co56 2.021 . S
O66 C63 1.238 . S
O67 Co61 2.052 . S
O67 C63 1.241 . S
O68 Co56 2.137 . S
O68 C59 1.247 . S
O69 Co56 2.244 . S
O69 C59 1.272 . S
O69 Co61 2.135 . S
Co70 O71 2.216 1_455 S
Co70 O72 2.091 . S
Co70 O74 2.004 . S
Co70 O80 2.021 . S
Co70 O82 2.137 1_455 S
Co70 O83 2.244 1_455 S
O71 Co70 2.216 1_655 S
O71 C78 1.247 1_655 S
O72 Co70 2.091 . S
O72 C78 1.261 . S
C73 O82 1.247 . S
C73 O83 1.272 . S
O74 Co70 2.004 . S
O74 C79 1.259 . S
Co75 O76 2.061 . S
Co75 O81 2.052 . S
Co75 O83 2.135 1_455 S
O76 Co75 2.061 . S
O76 C79 1.235 . S
C77 O80 1.238 . S
C77 O81 1.241 . S
C78 O71 1.247 1_455 S
C78 O72 1.261 . S
C79 O74 1.259 . S
C79 O76 1.235 . S
O80 Co70 2.021 . S
O80 C77 1.238 . S
O81 Co75 2.052 . S
O81 C77 1.241 . S
O82 Co70 2.137 1_655 S
O82 C73 1.247 . S
O83 Co70 2.244 1_655 S
O83 C73 1.272 . S
O83 Co75 2.135 1_655 S
Co84 O85 2.216 1_545 S
Co84 O86 2.091 . S
Co84 O88 2.004 . S
Co84 O94 2.021 . S
Co84 O96 2.137 1_545 S
Co84 O97 2.244 1_545 S
O85 Co84 2.216 1_565 S
O85 C92 1.247 1_565 S
O86 Co84 2.091 . S
O86 C92 1.261 . S
C87 O96 1.247 . S
C87 O97 1.272 . S
O88 Co84 2.004 . S
O88 C93 1.259 . S
Co89 O90 2.061 . S
Co89 O95 2.052 . S
Co89 O97 2.135 1_545 S
O90 Co89 2.061 . S
O90 C93 1.235 . S
C91 O94 1.238 . S
C91 O95 1.241 . S
C92 O85 1.247 1_545 S
C92 O86 1.261 . S
C93 O88 1.259 . S
C93 O90 1.235 . S
O94 Co84 2.021 . S
O94 C91 1.238 . S
O95 Co89 2.052 . S
O95 C91 1.241 . S
O96 Co84 2.137 1_565 S
O96 C87 1.247 . S
O97 Co84 2.244 1_565 S
O97 C87 1.272 . S
O97 Co89 2.135 1_565 S
Co98 O99 2.216 . S
Co98 O100 2.091 . S
Co98 O102 2.004 . S
Co98 O108 2.021 . S
Co98 O110 2.137 . S
Co98 O111 2.244 . S
O99 Co98 2.216 . S
O99 C106 1.247 . S
O100 Co98 2.091 . S
O100 C106 1.261 . S
C101 O110 1.247 . S
C101 O111 1.272 . S
O102 Co98 2.004 . S
O102 C107 1.259 . S
Co103 O104 2.061 . S
Co103 O109 2.052 . S
Co103 O111 2.135 . S
O104 Co103 2.061 . S
O104 C107 1.235 . S
C105 O108 1.238 . S
C105 O109 1.241 . S
C106 O99 1.247 . S
C106 O100 1.261 . S
C107 O102 1.259 . S
C107 O104 1.235 . S
O108 Co98 2.021 . S
O108 C105 1.238 . S
O109 Co103 2.052 . S
O109 C105 1.241 . S
O110 Co98 2.137 . S
O110 C101 1.247 . S
O111 Co98 2.244 . S
O111 C101 1.272 . S
O111 Co103 2.135 . S
C112 C113 1.369 . S
C112 C114 1.419 1_554 S
C112 H116 0.930 . S
C113 C112 1.369 . S
C113 C122 1.429 . S
C114 C112 1.419 1_556 S
C114 C115 1.363 . S
C114 H117 0.929 . S
C115 C114 1.363 . S
C115 C121 1.428 . S
H116 C112 0.930 . S
H117 C114 0.929 . S
S118 N119 1.613 . S
S118 N120 1.610 1_554 S
N119 S118 1.613 . S
N119 C122 1.350 1_565 S
N120 S118 1.610 1_556 S
N120 C121 1.351 1_565 S
C121 C115 1.428 . S
C121 N120 1.351 1_545 S
C121 C122 1.434 1_556 S
C122 C113 1.429 . S
C122 N119 1.350 1_545 S
C122 C121 1.434 1_554 S
C123 C124 1.369 . S
C123 C125 1.419 . S
C123 H127 0.930 . S
C124 C123 1.369 . S
C124 C133 1.429 . S
C125 C123 1.419 . S
C125 C126 1.363 . S
C125 H128 0.929 . S
C126 C125 1.363 . S
C126 C132 1.428 . S
H127 C123 0.930 . S
H128 C125 0.929 . S
S129 N130 1.613 . S
S129 N131 1.610 . S
N130 S129 1.613 . S
N130 C133 1.350 . S
N131 S129 1.610 . S
N131 C132 1.351 . S
C132 C126 1.428 . S
C132 N131 1.351 . S
C132 C133 1.434 . S
C133 C124 1.429 . S
C133 N130 1.350 . S
C133 C132 1.434 . S
C134 C135 1.369 . S
C134 C136 1.419 1_556 S
C134 H138 0.930 . S
C135 C134 1.369 . S
C135 C144 1.429 . S
C136 C134 1.419 1_554 S
C136 C137 1.363 . S
C136 H139 0.929 . S
C137 C136 1.363 . S
C137 C143 1.428 . S
H138 C134 0.930 . S
H139 C136 0.929 . S
S140 N141 1.613 1_554 S
S140 N142 1.610 . S
N141 S140 1.613 1_556 S
N141 C144 1.350 . S
N142 S140 1.610 . S
N142 C143 1.351 . S
C143 C137 1.428 . S
C143 N142 1.351 . S
C143 C144 1.434 1_554 S
C144 C135 1.429 . S
C144 N141 1.350 . S
C144 C143 1.434 1_556 S
C145 C146 1.369 . S
C145 C147 1.419 . S
C145 H149 0.930 . S
C146 C145 1.369 . S
C146 C155 1.429 . S
C147 C145 1.419 . S
C147 C148 1.363 . S
C147 H150 0.929 . S
C148 C147 1.363 . S
C148 C154 1.428 . S
H149 C145 0.930 . S
H150 C147 0.929 . S
S151 N152 1.613 . S
S151 N153 1.610 . S
N152 S151 1.613 . S
N152 C155 1.350 . S
N153 S151 1.610 . S
N153 C154 1.351 . S
C154 C148 1.428 . S
C154 N153 1.351 . S
C154 C155 1.434 . S
C155 C146 1.429 . S
C155 N152 1.350 . S
C155 C154 1.434 . S
C156 C157 1.369 . S
C156 C158 1.419 . S
C156 H160 0.930 . S
C157 C156 1.369 . S
C157 C166 1.429 . S
C158 C156 1.419 . S
C158 C159 1.363 . S
C158 H161 0.929 . S
C159 C158 1.363 . S
C159 C165 1.428 . S
H160 C156 0.930 . S
H161 C158 0.929 . S
S162 N163 1.613 . S
S162 N164 1.610 . S
N163 S162 1.613 . S
N163 C166 1.350 . S
N164 S162 1.610 . S
N164 C165 1.351 . S
C165 C159 1.428 . S
C165 N164 1.351 . S
C165 C166 1.434 . S
C166 C157 1.429 . S
C166 N163 1.350 . S
C166 C165 1.434 . S
C167 C168 1.369 . S
C167 C169 1.419 . S
C167 H171 0.930 . S
C168 C167 1.369 . S
C168 C177 1.429 . S
C169 C167 1.419 . S
C169 C170 1.363 . S
C169 H172 0.929 . S
C170 C169 1.363 . S
C170 C176 1.428 . S
H171 C167 0.930 . S
H172 C169 0.929 . S
S173 N174 1.613 1_655 S
S173 N175 1.610 . S
N174 S173 1.613 1_455 S
N174 C177 1.350 . S
N175 S173 1.610 . S
N175 C176 1.351 1_655 S
C176 C170 1.428 . S
C176 N175 1.351 1_455 S
C176 C177 1.434 . S
C177 C168 1.429 . S
C177 N174 1.350 . S
C177 C176 1.434 . S
C178 C179 1.369 . S
C178 C180 1.419 . S
C178 H182 0.930 1_545 S
C179 C178 1.369 . S
C179 C188 1.429 . S
C180 C178 1.419 . S
C180 C181 1.363 . S
C180 H183 0.929 . S
C181 C180 1.363 . S
C181 C187 1.428 . S
H182 C178 0.930 1_565 S
H183 C180 0.929 . S
S184 N185 1.613 . S
S184 N186 1.610 . S
N185 S184 1.613 . S
N185 C188 1.350 . S
N186 S184 1.610 . S
N186 C187 1.351 . S
C187 C181 1.428 . S
C187 N186 1.351 . S
C187 C188 1.434 . S
C188 C179 1.429 . S
C188 N185 1.350 . S
C188 C187 1.434 . S
C189 C190 1.369 . S
C189 C191 1.419 . S
C189 H193 0.930 . S
C190 C189 1.369 . S
C190 C199 1.429 . S
C191 C189 1.419 . S
C191 C192 1.363 . S
C191 H194 0.929 . S
C192 C191 1.363 . S
C192 C198 1.428 . S
H193 C189 0.930 . S
H194 C191 0.929 . S
S195 N196 1.613 . S
S195 N197 1.610 . S
N196 S195 1.613 . S
N196 C199 1.350 1_655 S
N197 S195 1.610 . S
N197 C198 1.351 1_655 S
C198 C192 1.428 . S
C198 N197 1.351 1_455 S
C198 C199 1.434 . S
C199 C190 1.429 . S
C199 N196 1.350 1_455 S
C199 C198 1.434 . S
C200 C201 1.369 . S
C200 C202 1.419 . S
C200 H204 0.930 . S
C201 C200 1.369 . S
C201 C210 1.429 . S
C202 C200 1.419 . S
C202 C203 1.363 . S
C202 H205 0.929 . S
C203 C202 1.363 . S
C203 C209 1.428 . S
H204 C200 0.930 . S
H205 C202 0.929 . S
S206 N207 1.613 . S
S206 N208 1.610 . S
N207 S206 1.613 . S
N207 C210 1.350 . S
N208 S206 1.610 . S
N208 C209 1.351 . S
C209 C203 1.428 . S
C209 N208 1.351 . S
C209 C210 1.434 . S
C210 C201 1.429 . S
C210 N207 1.350 . S
C210 C209 1.434 . S
C211 C212 1.369 . S
C211 C213 1.419 . S
C211 H215 0.930 . S
C212 C211 1.369 . S
C212 C221 1.429 . S
C213 C211 1.419 . S
C213 C214 1.363 . S
C213 H216 0.929 . S
C214 C213 1.363 . S
C214 C220 1.428 . S
H215 C211 0.930 . S
H216 C213 0.929 . S
S217 N218 1.613 . S
S217 N219 1.610 . S
N218 S217 1.613 . S
N218 C221 1.350 . S
N219 S217 1.610 . S
N219 C220 1.351 . S
C220 C214 1.428 . S
C220 N219 1.351 . S
C220 C221 1.434 . S
C221 C212 1.429 . S
C221 N218 1.350 . S
C221 C220 1.434 . S
C222 C223 1.369 . S
C222 C224 1.419 . S
C222 H226 0.930 . S
C223 C222 1.369 . S
C223 C232 1.429 . S
C224 C222 1.419 . S
C224 C225 1.363 . S
C224 H227 0.929 . S
C225 C224 1.363 . S
C225 C231 1.428 . S
H226 C222 0.930 . S
H227 C224 0.929 . S
S228 N229 1.613 . S
S228 N230 1.610 1_455 S
N229 S228 1.613 . S
N229 C232 1.350 1_455 S
N230 S228 1.610 1_655 S
N230 C231 1.351 . S
C231 C225 1.428 . S
C231 N230 1.351 . S
C231 C232 1.434 . S
C232 C223 1.429 . S
C232 N229 1.350 1_655 S
C232 C231 1.434 . S
C233 C234 1.369 . S
C233 C235 1.419 . S
C233 H237 0.930 . S
C234 C233 1.369 . S
C234 C243 1.429 . S
C235 C233 1.419 . S
C235 C236 1.363 . S
C235 H238 0.929 . S
C236 C235 1.363 . S
C236 C242 1.428 . S
H237 C233 0.930 . S
H238 C235 0.929 . S
S239 N240 1.613 . S
S239 N241 1.610 . S
N240 S239 1.613 . S
N240 C243 1.350 . S
N241 S239 1.610 . S
N241 C242 1.351 . S
C242 C236 1.428 . S
C242 N241 1.351 . S
C242 C243 1.434 . S
C243 C234 1.429 . S
C243 N240 1.350 . S
C243 C242 1.434 . S
C244 C245 1.369 . S
C244 C246 1.419 . S
C244 H248 0.930 . S
C245 C244 1.369 . S
C245 C254 1.429 . S
C246 C244 1.419 . S
C246 C247 1.363 . S
C246 H249 0.929 . S
C247 C246 1.363 . S
C247 C253 1.428 . S
H248 C244 0.930 . S
H249 C246 0.929 . S
S250 N251 1.613 . S
S250 N252 1.610 . S
N251 S250 1.613 . S
N251 C254 1.350 . S
N252 S250 1.610 . S
N252 C253 1.351 . S
C253 C247 1.428 . S
C253 N252 1.351 . S
C253 C254 1.434 . S
C254 C245 1.429 . S
C254 N251 1.350 . S
C254 C253 1.434 . S
C255 C256 1.369 . S
C255 C257 1.419 . S
C255 H259 0.930 . S
C256 C255 1.369 . S
C256 C265 1.429 . S
C257 C255 1.419 . S
C257 C258 1.363 . S
C257 H260 0.929 . S
C258 C257 1.363 . S
C258 C264 1.428 . S
H259 C255 0.930 . S
H260 C257 0.929 . S
S261 N262 1.613 . S
S261 N263 1.610 . S
N262 S261 1.613 . S
N262 C265 1.350 . S
N263 S261 1.610 . S
N263 C264 1.351 . S
C264 C258 1.428 . S
C264 N263 1.351 . S
C264 C265 1.434 . S
C265 C256 1.429 . S
C265 N262 1.350 . S
C265 C264 1.434 . S
C266 C267 1.369 . S
C266 C268 1.419 . S
C266 H270 0.930 . S
C267 C266 1.369 . S
C267 C276 1.429 . S
C268 C266 1.419 . S
C268 C269 1.363 . S
C268 H271 0.929 . S
C269 C268 1.363 . S
C269 C275 1.428 . S
H270 C266 0.930 . S
H271 C268 0.929 . S
S272 N273 1.613 . S
S272 N274 1.610 . S
N273 S272 1.613 . S
N273 C276 1.350 . S
N274 S272 1.610 . S
N274 C275 1.351 . S
C275 C269 1.428 . S
C275 N274 1.351 . S
C275 C276 1.434 . S
C276 C267 1.429 . S
C276 N273 1.350 . S
C276 C275 1.434 . S
C277 C278 1.369 . S
C277 C279 1.419 . S
C277 H281 0.930 . S
C278 C277 1.369 . S
C278 C287 1.429 . S
C279 C277 1.419 . S
C279 C280 1.363 . S
C279 H282 0.929 . S
C280 C279 1.363 . S
C280 C286 1.428 . S
H281 C277 0.930 . S
H282 C279 0.929 . S
S283 N284 1.613 . S
S283 N285 1.610 . S
N284 S283 1.613 . S
N284 C287 1.350 . S
N285 S283 1.610 . S
N285 C286 1.351 . S
C286 C280 1.428 . S
C286 N285 1.351 . S
C286 C287 1.434 . S
C287 C278 1.429 . S
C287 N284 1.350 . S
C287 C286 1.434 . S
C113 C7 1.528 . S
C115 C63 1.531 . S
C124 C21 1.532 . S
C126 C77 1.530 . S
C135 C91 1.531 . S
C137 C35 1.528 . S
C146 C105 1.525 . S
C148 C49 1.527 . S
C157 C8 1.434 . S
C159 C36 1.428 . S
C168 C22 1.427 . S
C170 C50 1.435 . S
C179 C92 1.427 . S
C181 C64 1.434 . S
C190 C78 1.436 . S
C192 C106 1.427 . S
C201 C79 1.473 . S
C203 C9 1.473 . S
C212 C23 1.475 1_655 S
C214 C93 1.474 . S
C223 C107 1.473 1_655 S
C225 C37 1.474 1_565 S
C234 C51 1.478 . S
C236 C65 1.477 1_565 S
C245 C87 1.337 . S
C247 C45 1.335 . S
C256 C3 1.331 . S
C258 C101 1.334 . S
C267 C17 1.333 . S
C269 C59 1.337 . S
C278 C73 1.334 . S
C280 C31 1.332 . S
