# Generated by pormake.
# Topology dft, (4)-cn, num edge types: 1
# Building blocks:
#     Node 0, Type 0, BuildingBlock: NAHDIM_clean_sbu_0, # of connection points: 4
#     Node 1, Type 0, BuildingBlock: NAHDIM_clean_sbu_0, # of connection points: 4
#     Node 2, Type 0, BuildingBlock: NAHDIM_clean_sbu_0, # of connection points: 4
#     Node 3, Type 0, BuildingBlock: NAHDIM_clean_sbu_0, # of connection points: 4
#     Node 4, Type 0, BuildingBlock: NAHDIM_clean_sbu_0, # of connection points: 4
#     Node 5, Type 0, BuildingBlock: NAHDIM_clean_sbu_0, # of connection points: 4
#     Node 6, Type 0, BuildingBlock: NAHDIM_clean_sbu_0, # of connection points: 4
#     Node 7, Type 0, BuildingBlock: NAHDIM_clean_sbu_0, # of connection points: 4
#     Edge 8, Type (0, 0), BuildingBlock: OJICUG_clean_linker_0, # of connection points: 2
#     Edge 9, Type (0, 0), BuildingBlock: OJICUG_clean_linker_0, # of connection points: 2
#     Edge 10, Type (0, 0), BuildingBlock: OJICUG_clean_linker_0, # of connection points: 2
#     Edge 11, Type (0, 0), BuildingBlock: OJICUG_clean_linker_0, # of connection points: 2
#     Edge 12, Type (0, 0), BuildingBlock: OJICUG_clean_linker_0, # of connection points: 2
#     Edge 13, Type (0, 0), BuildingBlock: OJICUG_clean_linker_0, # of connection points: 2
#     Edge 14, Type (0, 0), BuildingBlock: OJICUG_clean_linker_0, # of connection points: 2
#     Edge 15, Type (0, 0), BuildingBlock: OJICUG_clean_linker_0, # of connection points: 2
#     Edge 16, Type (0, 0), BuildingBlock: OJICUG_clean_linker_0, # of connection points: 2
#     Edge 17, Type (0, 0), BuildingBlock: OJICUG_clean_linker_0, # of connection points: 2
#     Edge 18, Type (0, 0), BuildingBlock: OJICUG_clean_linker_0, # of connection points: 2
#     Edge 19, Type (0, 0), BuildingBlock: OJICUG_clean_linker_0, # of connection points: 2
#     Edge 20, Type (0, 0), BuildingBlock: OJICUG_clean_linker_0, # of connection points: 2
#     Edge 21, Type (0, 0), BuildingBlock: OJICUG_clean_linker_0, # of connection points: 2
#     Edge 22, Type (0, 0), BuildingBlock: OJICUG_clean_linker_0, # of connection points: 2
#     Edge 23, Type (0, 0), BuildingBlock: OJICUG_clean_linker_0, # of connection points: 2
# Relax obj value: 0.140
# Max RMSD: 0.139
# Mean RMSD: 0.139
data_MOF--net-dft--node1-NAHDIM_clean_sbu_0--edge1-OJICUG_clean_linker_0
_symmetry_space_group_name_H-M    P1
_symmetry_Int_Tables_number       1
_symmetry_cell_setting            triclinic
loop_
_symmetry_equiv_pos_as_xyz
'x, y, z'
_cell_length_a     26.000229
_cell_length_b     25.997316
_cell_length_c     28.64283
_cell_angle_alpha  90.103184
_cell_angle_beta   89.99332
_cell_angle_gamma 88.944841
loop_
_atom_site_label
_atom_site_type_symbol
_atom_site_fract_x
_atom_site_fract_y
_atom_site_fract_z
_atom_type_partial_charge
C0 C 0.3998 0.02967 0.19244 0.0
O1 O 0.38073 0.07622 0.18565 0.0
O2 O 0.26169 0.0613 0.20767 0.0
Zn3 Zn 0.29551 0.00224 0.17222 0.0
O4 O 0.29211 0.01341 0.10295 0.0
C5 C 0.24509 0.92145 0.22456 0.0
O6 O 0.26428 0.94455 0.26131 0.0
O7 O 0.36994 -0.00842 0.1901 0.0
C8 C 0.24994 0.00665 0.08153 0.0
O9 O 0.20864 -0.00454 0.10563 0.0
C10 C 0.24286 0.10105 0.18769 0.0
O11 O 0.2478 0.10597 0.1423 0.0
O12 O 0.25504 0.93857 0.18417 0.0
C13 C 0.98659 0.401 0.67406 0.0
O14 O 0.95753 0.38225 0.64085 0.0
O15 O 0.93184 0.27317 0.71587 0.0
Zn16 Zn -0.00141 0.29558 0.68749 0.0
O17 O -0.00112 0.28851 0.61737 0.0
C18 C 0.04533 0.20303 0.7188 0.0
O19 O -0.00266 0.18883 0.71454 0.0
O20 O 0.00935 0.37029 0.70204 0.0
C21 C -0.00477 0.24704 0.59418 0.0
O22 O 0.98879 0.20339 0.61623 0.0
C23 C 0.89152 0.26313 0.6928 0.0
O24 O 0.89099 0.27033 0.64743 0.0
O25 O 0.05633 0.24973 0.71117 0.0
C26 C 0.62023 -0.00301 0.19256 0.0
O27 O 0.63919 0.9505 0.18506 0.0
O28 O 0.75798 0.96469 0.20834 0.0
Zn29 Zn 0.72448 0.02353 0.17264 0.0
O30 O 0.72717 0.01124 0.10348 0.0
C31 C 0.77256 0.10791 0.22319 0.0
O32 O 0.74909 0.08947 0.25999 0.0
O33 O 0.65023 0.03501 0.19084 0.0
C34 C 0.7692 0.01721 0.08164 0.0
O35 O 0.81087 0.0283 0.10528 0.0
C36 C 0.77574 0.92413 0.18877 0.0
O37 O 0.76984 0.91814 0.14357 0.0
O38 O 0.76592 0.08681 0.18371 0.0
C39 C 0.02692 0.61759 0.67349 0.0
O40 O 0.05439 0.63598 0.63908 0.0
O41 O 0.08415 0.74552 0.7178 0.0
Zn42 Zn 0.01752 0.72333 0.68899 0.0
O43 O 0.01757 0.73146 0.61899 0.0
C44 C 0.97076 0.81574 0.721 0.0
O45 O 0.01885 0.82983 0.71737 0.0
O46 O 0.00637 0.64849 0.70275 0.0
C47 C 0.02271 0.77318 0.59659 0.0
O48 O 0.03053 0.81613 0.61948 0.0
C49 C 0.12486 0.75458 0.69495 0.0
O50 O 0.1259 0.74616 0.64974 0.0
O51 O 0.95973 0.76912 0.71284 0.0
C52 C 0.39943 0.98962 0.80139 0.0
O53 O 0.38045 0.96092 0.83467 0.0
O54 O 0.27235 0.93397 0.75993 0.0
Zn55 Zn 0.2942 0.00154 0.78732 0.0
O56 O 0.28681 0.00264 0.85742 0.0
C57 C 0.20197 0.04726 0.75355 0.0
O58 O 0.1881 -0.00089 0.75724 0.0
O59 O 0.36893 0.01219 0.77309 0.0
C60 C 0.24474 0.00426 0.87996 0.0
O61 O 0.20093 0.00377 0.8572 0.0
C62 C 0.26061 0.89505 0.7842 0.0
O63 O 0.26555 0.89692 0.8298 0.0
O64 O 0.24827 0.05869 0.76257 0.0
C65 C 0.05401 0.40226 0.29797 0.0
O66 O 0.09335 0.37746 0.3167 0.0
O67 O 0.07218 0.26309 0.26997 0.0
Zn68 Zn 0.01419 0.3017 0.30285 0.0
O69 O 0.02003 0.29531 0.37252 0.0
C70 C 0.93711 0.25181 0.24575 0.0
O71 O 0.97086 0.25724 0.21205 0.0
O72 O 0.01429 0.37715 0.28698 0.0
C73 C 0.00565 0.25459 0.39286 0.0
O74 O 0.98968 0.2158 0.36758 0.0
C75 C 0.10716 0.23779 0.29149 0.0
O76 O 0.10744 0.23775 0.33733 0.0
O77 O 0.94691 0.26973 0.28596 0.0
C78 C 0.61627 0.02835 0.80261 0.0
O79 O 0.63477 0.05634 0.8367 0.0
O80 O 0.74352 0.08517 0.75954 0.0
Zn81 Zn 0.72184 0.0181 0.78778 0.0
O82 O 0.72978 0.01818 0.85784 0.0
C83 C 0.81398 0.97195 0.75405 0.0
O84 O 0.82777 0.02019 0.757 0.0
O85 O 0.64709 0.00697 0.77379 0.0
C86 C 0.77209 0.01717 0.88003 0.0
O87 O 0.81565 0.01761 0.85686 0.0
C88 C 0.75507 0.12461 0.7833 0.0
O89 O 0.74989 0.12369 0.82891 0.0
O90 O 0.76776 0.96061 0.76346 0.0
C91 C 0.04929 0.6246 0.29952 0.0
O92 O 0.08653 0.64909 0.32056 0.0
O93 O 0.94581 0.76165 0.27116 0.0
Zn94 Zn 0.00509 0.72511 0.304 0.0
O95 O -0.00148 0.72998 0.37379 0.0
C96 C 0.08397 0.77377 0.24725 0.0
O97 O 0.05459 0.7617 0.2117 0.0
O98 O 0.00932 0.64988 0.287 0.0
C99 C 0.01374 0.76984 0.39513 0.0
O100 O 0.03082 0.80881 0.37085 0.0
C101 C 0.91268 0.78936 0.29278 0.0
O102 O 0.91525 0.79293 0.33844 0.0
O103 O 0.07081 0.76055 0.2881 0.0
C104 C 0.2936 0.01331 0.00405 0.0
C105 C 0.24811 0.0084 0.03 0.0
H106 H 0.32823 0.01555 0.93646 0.0
C107 C 0.2012 0.00322 0.00618 0.0
H108 H 0.33038 0.01729 0.02132 0.0
C109 C 0.19993 0.00236 0.9574 0.0
C110 C 0.24557 0.00635 0.93151 0.0
H111 H 0.16547 -0.0006 0.02519 0.0
H112 H 0.16326 -0.00203 0.94004 0.0
C113 C 0.29237 0.01212 0.95536 0.0
C114 C 0.989 0.20426 0.51591 0.0
C115 C -0.00138 0.24838 0.5427 0.0
H116 H 0.98367 0.17159 0.44745 0.0
C117 C 0.01172 0.29411 0.51983 0.0
H118 H 0.97887 0.16844 0.53251 0.0
C119 C 0.01485 0.29581 0.47124 0.0
C120 C 0.00459 0.25193 0.44438 0.0
H121 H 0.01958 0.32876 0.53945 0.0
H122 H 0.02472 0.33178 0.45476 0.0
C123 C -0.00822 0.20608 0.46719 0.0
C124 C 0.81777 0.02002 0.957 0.0
C125 C 0.77183 0.01575 0.93159 0.0
H126 H 0.85302 0.02374 0.02442 0.0
C127 C 0.72531 0.01027 0.95594 0.0
H128 H 0.85424 0.02419 0.93925 0.0
C129 C 0.72465 0.00966 0.00465 0.0
C130 C 0.77044 0.01484 0.0301 0.0
H131 H 0.68923 0.00664 0.93741 0.0
H132 H 0.68806 0.00589 0.0223 0.0
C133 C 0.81707 0.01972 0.0058 0.0
C134 C 0.02811 0.81646 0.47049 0.0
C135 C 0.01439 0.77141 0.44669 0.0
H136 H 0.0414 0.85248 0.53659 0.0
C137 C 0.00287 0.72728 0.47261 0.0
H138 H 0.03721 0.85112 0.45149 0.0
C139 C 0.00563 0.72796 0.52125 0.0
C140 C 0.01964 0.7729 0.54509 0.0
H141 H -0.0077 0.6919 0.45534 0.0
H142 H -0.00321 0.69315 0.54013 0.0
C143 C 0.03054 0.81725 0.51924 0.0
C144 C 0.4893 0.06334 0.19891 0.0
C145 C 0.45606 0.02131 0.19768 0.0
H146 H 0.56716 0.08872 0.19869 0.0
C147 C 0.47737 0.97122 0.1985 0.0
H148 H 0.47418 0.10244 0.19855 0.0
C149 C 0.53072 0.96335 0.19846 0.0
C150 C 0.56397 0.00538 0.19776 0.0
H151 H 0.45289 0.93796 0.19776 0.0
H152 H 0.54584 0.92425 0.19775 0.0
C153 C 0.54267 0.05547 0.19903 0.0
C154 C 0.00361 0.48277 0.7174 0.0
C155 C -0.00336 0.45641 0.67509 0.0
H156 H 0.01734 0.55573 0.75018 0.0
C157 C -0.0005 0.48335 0.63283 0.0
H158 H 0.00142 0.46261 0.75039 0.0
C159 C 0.01001 0.53565 0.63267 0.0
C160 C 0.01626 0.56233 0.67481 0.0
H161 H -0.00546 0.46376 0.59975 0.0
H162 H 0.01249 0.55542 0.59949 0.0
C163 C 0.01248 0.53577 0.71729 0.0
C164 C 0.53456 0.01379 0.75857 0.0
C165 C 0.56092 0.0182 0.80115 0.0
H166 H 0.46151 0.00261 0.72522 0.0
C167 C 0.53396 0.01306 0.84323 0.0
H168 H 0.55474 0.01781 0.72573 0.0
C169 C 0.48158 0.00296 0.84291 0.0
C170 C 0.45486 -0.00057 0.80054 0.0
H171 H 0.55357 0.01606 0.87648 0.0
H172 H 0.46176 -0.00119 0.87594 0.0
C173 C 0.4815 0.00535 0.75829 0.0
C174 C 0.09722 0.48662 0.30914 0.0
C175 C 0.05431 0.45907 0.29397 0.0
H176 H 0.1294 0.56029 0.32251 0.0
C177 C 0.0109 0.48653 0.2775 0.0
H178 H 0.13139 0.46673 0.32186 0.0
C179 C 0.00978 0.54039 0.27782 0.0
C180 C 0.05202 0.56786 0.2947 0.0
H181 H 0.97725 0.46648 0.26542 0.0
H182 H 0.97528 0.5604 0.26602 0.0
C183 C 0.09608 0.54036 0.30953 0.0
C184 C 0.17641 0.16951 0.2886 0.0
C185 C 0.14487 0.20563 0.26522 0.0
H186 H 0.23205 0.1081 0.28253 0.0
C187 C 0.14815 0.20908 0.21635 0.0
H188 H 0.17486 0.16586 0.32624 0.0
C189 C 0.18128 0.17624 0.19133 0.0
C190 C 0.21147 0.13888 0.21458 0.0
H191 H 0.12455 0.23664 0.19729 0.0
H192 H 0.18212 0.17925 0.15363 0.0
C193 C 0.20917 0.13632 0.26354 0.0
C194 C 0.84683 0.23343 0.76484 0.0
C195 C 0.84972 0.2351 0.71587 0.0
H196 H 0.81371 0.19778 0.82471 0.0
C197 C 0.81606 0.20507 0.68942 0.0
H198 H 0.87203 0.25649 0.78613 0.0
C199 C 0.78306 0.17099 0.71152 0.0
C200 C 0.7826 0.1669 0.76045 0.0
H201 H 0.8173 0.20559 0.65163 0.0
H202 H 0.75947 0.14632 0.6902 0.0
C203 C 0.8133 0.1999 0.78695 0.0
C204 C 0.84411 0.85825 0.28973 0.0
C205 C 0.87434 0.82074 0.26658 0.0
H206 H 0.78928 0.92027 0.2834 0.0
C207 C 0.86931 0.81537 0.21797 0.0
H208 H 0.84696 0.86338 0.32717 0.0
C209 C 0.8359 0.8478 0.1929 0.0
C210 C 0.80715 0.88659 0.21585 0.0
H211 H 0.89187 0.78672 0.1991 0.0
H212 H 0.83379 0.84337 0.15535 0.0
C213 C 0.81105 0.89095 0.26462 0.0
C214 C 0.20046 0.8124 0.6912 0.0
C215 C 0.16652 0.78304 0.71788 0.0
H216 H 0.25708 0.87113 0.69143 0.0
C217 C 0.1689 0.78591 0.76684 0.0
H218 H 0.19959 0.81096 0.65341 0.0
C219 C 0.20224 0.81995 0.78863 0.0
C220 C 0.23323 0.85228 0.76183 0.0
H221 H 0.14345 0.76341 0.78831 0.0
H222 H 0.20145 0.823 0.82635 0.0
C223 C 0.23326 0.847 0.71298 0.0
C224 C 0.84008 0.8793 0.74168 0.0
C225 C 0.85323 0.93143 0.74451 0.0
H226 H 0.86701 0.80149 0.73218 0.0
C227 C 0.9051 0.9448 0.74008 0.0
H228 H 0.80044 0.86779 0.74514 0.0
C229 C 0.94303 0.90702 0.7332 0.0
C230 C 0.93009 0.8549 0.73027 0.0
H231 H 0.91667 0.98454 0.74229 0.0
H232 H 0.98258 0.9189 0.72986 0.0
C233 C 0.87819 0.84134 0.73448 0.0
C234 C 0.19516 0.86103 0.27446 0.0
C235 C 0.20774 0.87957 0.22997 0.0
H236 H 0.14658 0.81273 0.31479 0.0
C237 C 0.18191 0.85996 0.1908 0.0
H238 H 0.21447 0.87513 0.30532 0.0
C239 C 0.14281 0.82427 0.1962 0.0
C240 C 0.12884 0.80727 0.24086 0.0
H241 H 0.19077 0.87331 0.15596 0.0
H242 H 0.12268 0.81107 0.16545 0.0
C243 C 0.15621 0.82519 0.27985 0.0
C244 C 0.07304 0.11186 0.7315 0.0
C245 C 0.08597 0.16397 0.7284 0.0
H246 H 0.09939 0.03446 0.74119 0.0
C247 C 0.13783 0.17761 0.73286 0.0
H248 H 0.03353 0.09992 0.728 0.0
C249 C 0.17591 0.13975 0.74047 0.0
C250 C 0.16277 0.08763 0.74352 0.0
H251 H 0.149 0.21744 0.73044 0.0
H252 H 0.21551 0.15132 0.74412 0.0
C253 C 0.11095 0.07419 0.73884 0.0
C254 C 0.85996 0.2068 0.277 0.0
C255 C 0.89129 0.21969 0.23885 0.0
H256 H 0.79782 0.16148 0.30202 0.0
C257 C 0.88049 0.19863 0.19483 0.0
H258 H 0.86716 0.22243 0.31142 0.0
C259 C 0.84061 0.16382 0.18945 0.0
C260 C 0.8108 0.1491 0.22804 0.0
H261 H 0.9037 0.20793 0.16471 0.0
H262 H 0.83425 0.14725 0.15526 0.0
C263 C 0.82021 0.17178 0.27167 0.0
loop_
_geom_bond_atom_site_label_1
_geom_bond_atom_site_label_2
_geom_bond_distance
_geom_bond_site_symmetry_2
_ccdc_geom_bond_type
C0 O1 1.160 . S
C0 O7 1.185 . S
O1 C0 1.160 . S
O2 Zn3 1.899 . S
O2 C10 1.284 . S
Zn3 O2 1.899 . S
Zn3 O4 2.032 . S
Zn3 O7 2.086 . S
Zn3 O12 1.977 1_545 S
O4 Zn3 2.032 . S
O4 C8 1.278 . S
C5 O6 1.203 . S
C5 O12 1.267 . S
O6 C5 1.203 . S
O7 C0 1.185 . S
O7 Zn3 2.086 . S
C8 O4 1.278 . S
C8 O9 1.211 1_545 S
O9 C8 1.211 1_565 S
C10 O2 1.284 . S
C10 O11 1.273 . S
O11 C10 1.273 . S
O12 Zn3 1.977 1_565 S
O12 C5 1.267 . S
C13 O14 1.160 1_455 S
C13 O20 1.185 . S
O14 C13 1.160 1_655 S
O15 Zn16 1.899 1_655 S
O15 C23 1.284 . S
Zn16 O15 1.899 1_455 S
Zn16 O17 2.032 . S
Zn16 O20 2.086 . S
Zn16 O25 1.977 . S
O17 Zn16 2.032 . S
O17 C21 1.278 . S
C18 O19 1.203 . S
C18 O25 1.267 . S
O19 C18 1.203 . S
O20 C13 1.185 . S
O20 Zn16 2.086 . S
C21 O17 1.278 . S
C21 O22 1.211 . S
O22 C21 1.211 . S
C23 O15 1.284 . S
C23 O24 1.273 . S
O24 C23 1.273 . S
O25 Zn16 1.977 . S
O25 C18 1.267 . S
C26 O27 1.160 1_545 S
C26 O33 1.185 . S
O27 C26 1.160 1_565 S
O28 Zn29 1.899 1_565 S
O28 C36 1.284 . S
Zn29 O28 1.899 1_545 S
Zn29 O30 2.032 . S
Zn29 O33 2.086 . S
Zn29 O38 1.977 . S
O30 Zn29 2.032 . S
O30 C34 1.278 . S
C31 O32 1.203 . S
C31 O38 1.267 . S
O32 C31 1.203 . S
O33 C26 1.185 . S
O33 Zn29 2.086 . S
C34 O30 1.278 . S
C34 O35 1.211 . S
O35 C34 1.211 . S
C36 O28 1.284 . S
C36 O37 1.273 . S
O37 C36 1.273 . S
O38 Zn29 1.977 . S
O38 C31 1.267 . S
C39 O40 1.160 . S
C39 O46 1.185 . S
O40 C39 1.160 . S
O41 Zn42 1.899 . S
O41 C49 1.284 . S
Zn42 O41 1.899 . S
Zn42 O43 2.032 . S
Zn42 O46 2.086 . S
Zn42 O51 1.977 1_455 S
O43 Zn42 2.032 . S
O43 C47 1.278 . S
C44 O45 1.203 . S
C44 O51 1.267 . S
O45 C44 1.203 . S
O46 C39 1.185 . S
O46 Zn42 2.086 . S
C47 O43 1.278 . S
C47 O48 1.211 1_455 S
O48 C47 1.211 1_655 S
C49 O41 1.284 . S
C49 O50 1.273 . S
O50 C49 1.273 . S
O51 Zn42 1.977 1_655 S
O51 C44 1.267 . S
C52 O53 1.160 1_545 S
C52 O59 1.185 . S
O53 C52 1.160 1_565 S
O54 Zn55 1.899 1_565 S
O54 C62 1.284 . S
Zn55 O54 1.899 1_545 S
Zn55 O56 2.032 . S
Zn55 O59 2.086 . S
Zn55 O64 1.977 . S
O56 Zn55 2.032 . S
O56 C60 1.278 . S
C57 O58 1.203 . S
C57 O64 1.267 . S
O58 C57 1.203 . S
O59 C52 1.185 . S
O59 Zn55 2.086 . S
C60 O56 1.278 . S
C60 O61 1.211 . S
O61 C60 1.211 . S
C62 O54 1.284 . S
C62 O63 1.273 . S
O63 C62 1.273 . S
O64 Zn55 1.977 . S
O64 C57 1.267 . S
C65 O66 1.160 . S
C65 O72 1.185 . S
O66 C65 1.160 . S
O67 Zn68 1.899 . S
O67 C75 1.284 . S
Zn68 O67 1.899 . S
Zn68 O69 2.032 . S
Zn68 O72 2.086 . S
Zn68 O77 1.977 1_455 S
O69 Zn68 2.032 . S
O69 C73 1.278 . S
C70 O71 1.203 . S
C70 O77 1.267 . S
O71 C70 1.203 . S
O72 C65 1.185 . S
O72 Zn68 2.086 . S
C73 O69 1.278 . S
C73 O74 1.211 1_455 S
O74 C73 1.211 1_655 S
C75 O67 1.284 . S
C75 O76 1.273 . S
O76 C75 1.273 . S
O77 Zn68 1.977 1_655 S
O77 C70 1.267 . S
C78 O79 1.160 . S
C78 O85 1.185 . S
O79 C78 1.160 . S
O80 Zn81 1.899 . S
O80 C88 1.284 . S
Zn81 O80 1.899 . S
Zn81 O82 2.032 . S
Zn81 O85 2.086 . S
Zn81 O90 1.977 1_545 S
O82 Zn81 2.032 . S
O82 C86 1.278 . S
C83 O84 1.203 . S
C83 O90 1.267 . S
O84 C83 1.203 . S
O85 C78 1.185 . S
O85 Zn81 2.086 . S
C86 O82 1.278 . S
C86 O87 1.211 1_545 S
O87 C86 1.211 1_565 S
C88 O80 1.284 . S
C88 O89 1.273 . S
O89 C88 1.273 . S
O90 Zn81 1.977 1_565 S
O90 C83 1.267 . S
C91 O92 1.160 1_455 S
C91 O98 1.185 . S
O92 C91 1.160 1_655 S
O93 Zn94 1.899 1_655 S
O93 C101 1.284 . S
Zn94 O93 1.899 1_455 S
Zn94 O95 2.032 . S
Zn94 O98 2.086 . S
Zn94 O103 1.977 . S
O95 Zn94 2.032 . S
O95 C99 1.278 . S
C96 O97 1.203 . S
C96 O103 1.267 . S
O97 C96 1.203 . S
O98 C91 1.185 . S
O98 Zn94 2.086 . S
C99 O95 1.278 . S
C99 O100 1.211 . S
O100 C99 1.211 . S
C101 O93 1.284 . S
C101 O102 1.273 . S
O102 C101 1.273 . S
O103 Zn94 1.977 . S
O103 C96 1.267 . S
C104 C105 1.387 . S
C104 H108 0.950 . S
C104 C113 1.390 1_554 S
C105 C104 1.387 . S
C105 C107 1.387 . S
H106 C113 0.950 . S
C107 C105 1.387 . S
C107 C109 1.390 1_554 S
C107 H111 0.950 . S
H108 C104 0.950 . S
C109 C107 1.390 1_556 S
C109 C110 1.387 . S
C109 H112 0.950 . S
C110 C109 1.387 . S
C110 C113 1.387 . S
H111 C107 0.950 . S
H112 C109 0.950 . S
C113 C104 1.390 1_556 S
C113 H106 0.950 . S
C113 C110 1.387 . S
C114 C115 1.387 . S
C114 H118 0.950 . S
C114 C123 1.390 . S
C115 C114 1.387 . S
C115 C117 1.387 . S
H116 C123 0.950 . S
C117 C115 1.387 . S
C117 C119 1.390 . S
C117 H121 0.950 . S
H118 C114 0.950 . S
C119 C117 1.390 . S
C119 C120 1.387 . S
C119 H122 0.950 . S
C120 C119 1.387 . S
C120 C123 1.387 . S
H121 C117 0.950 . S
H122 C119 0.950 . S
C123 C114 1.390 . S
C123 H116 0.950 . S
C123 C120 1.387 . S
C124 C125 1.387 . S
C124 H128 0.950 . S
C124 C133 1.390 1_556 S
C125 C124 1.387 . S
C125 C127 1.387 . S
H126 C133 0.950 . S
C127 C125 1.387 . S
C127 C129 1.390 1_556 S
C127 H131 0.950 . S
H128 C124 0.950 . S
C129 C127 1.390 1_554 S
C129 C130 1.387 . S
C129 H132 0.950 . S
C130 C129 1.387 . S
C130 C133 1.387 . S
H131 C127 0.950 . S
H132 C129 0.950 . S
C133 C124 1.390 1_554 S
C133 H126 0.950 . S
C133 C130 1.387 . S
C134 C135 1.387 . S
C134 H138 0.950 . S
C134 C143 1.390 . S
C135 C134 1.387 . S
C135 C137 1.387 . S
H136 C143 0.950 . S
C137 C135 1.387 . S
C137 C139 1.390 . S
C137 H141 0.950 . S
H138 C134 0.950 . S
C139 C137 1.390 . S
C139 C140 1.387 . S
C139 H142 0.950 . S
C140 C139 1.387 . S
C140 C143 1.387 . S
H141 C137 0.950 . S
H142 C139 0.950 . S
C143 C134 1.390 . S
C143 H136 0.950 . S
C143 C140 1.387 . S
C144 C145 1.387 . S
C144 H148 0.950 . S
C144 C153 1.390 . S
C145 C144 1.387 . S
C145 C147 1.387 . S
H146 C153 0.950 . S
C147 C145 1.387 . S
C147 C149 1.390 . S
C147 H151 0.950 . S
H148 C144 0.950 . S
C149 C147 1.390 . S
C149 C150 1.387 . S
C149 H152 0.950 . S
C150 C149 1.387 . S
C150 C153 1.387 . S
H151 C147 0.950 . S
H152 C149 0.950 . S
C153 C144 1.390 . S
C153 H146 0.950 . S
C153 C150 1.387 . S
C154 C155 1.387 . S
C154 H158 0.950 . S
C154 C163 1.390 . S
C155 C154 1.387 . S
C155 C157 1.387 . S
H156 C163 0.950 . S
C157 C155 1.387 . S
C157 C159 1.390 . S
C157 H161 0.950 . S
H158 C154 0.950 . S
C159 C157 1.390 . S
C159 C160 1.387 . S
C159 H162 0.950 . S
C160 C159 1.387 . S
C160 C163 1.387 . S
H161 C157 0.950 . S
H162 C159 0.950 . S
C163 C154 1.390 . S
C163 H156 0.950 . S
C163 C160 1.387 . S
C164 C165 1.387 . S
C164 H168 0.950 . S
C164 C173 1.390 . S
C165 C164 1.387 . S
C165 C167 1.387 . S
H166 C173 0.950 . S
C167 C165 1.387 . S
C167 C169 1.390 . S
C167 H171 0.950 . S
H168 C164 0.950 . S
C169 C167 1.390 . S
C169 C170 1.387 . S
C169 H172 0.950 . S
C170 C169 1.387 . S
C170 C173 1.387 . S
H171 C167 0.950 . S
H172 C169 0.950 . S
C173 C164 1.390 . S
C173 H166 0.950 . S
C173 C170 1.387 . S
C174 C175 1.387 . S
C174 H178 0.950 . S
C174 C183 1.390 . S
C175 C174 1.387 . S
C175 C177 1.387 . S
H176 C183 0.950 . S
C177 C175 1.387 . S
C177 C179 1.390 . S
C177 H181 0.950 . S
H178 C174 0.950 . S
C179 C177 1.390 . S
C179 C180 1.387 . S
C179 H182 0.950 . S
C180 C179 1.387 . S
C180 C183 1.387 . S
H181 C177 0.950 . S
H182 C179 0.950 . S
C183 C174 1.390 . S
C183 H176 0.950 . S
C183 C180 1.387 . S
C184 C185 1.387 . S
C184 H188 0.950 . S
C184 C193 1.390 . S
C185 C184 1.387 . S
C185 C187 1.387 . S
H186 C193 0.950 . S
C187 C185 1.387 . S
C187 C189 1.390 . S
C187 H191 0.950 . S
H188 C184 0.950 . S
C189 C187 1.390 . S
C189 C190 1.387 . S
C189 H192 0.950 . S
C190 C189 1.387 . S
C190 C193 1.387 . S
H191 C187 0.950 . S
H192 C189 0.950 . S
C193 C184 1.390 . S
C193 H186 0.950 . S
C193 C190 1.387 . S
C194 C195 1.387 . S
C194 H198 0.950 . S
C194 C203 1.390 . S
C195 C194 1.387 . S
C195 C197 1.387 . S
H196 C203 0.950 . S
C197 C195 1.387 . S
C197 C199 1.390 . S
C197 H201 0.950 . S
H198 C194 0.950 . S
C199 C197 1.390 . S
C199 C200 1.387 . S
C199 H202 0.950 . S
C200 C199 1.387 . S
C200 C203 1.387 . S
H201 C197 0.950 . S
H202 C199 0.950 . S
C203 C194 1.390 . S
C203 H196 0.950 . S
C203 C200 1.387 . S
C204 C205 1.387 . S
C204 H208 0.950 . S
C204 C213 1.390 . S
C205 C204 1.387 . S
C205 C207 1.387 . S
H206 C213 0.950 . S
C207 C205 1.387 . S
C207 C209 1.390 . S
C207 H211 0.950 . S
H208 C204 0.950 . S
C209 C207 1.390 . S
C209 C210 1.387 . S
C209 H212 0.950 . S
C210 C209 1.387 . S
C210 C213 1.387 . S
H211 C207 0.950 . S
H212 C209 0.950 . S
C213 C204 1.390 . S
C213 H206 0.950 . S
C213 C210 1.387 . S
C214 C215 1.387 . S
C214 H218 0.950 . S
C214 C223 1.390 . S
C215 C214 1.387 . S
C215 C217 1.387 . S
H216 C223 0.950 . S
C217 C215 1.387 . S
C217 C219 1.390 . S
C217 H221 0.950 . S
H218 C214 0.950 . S
C219 C217 1.390 . S
C219 C220 1.387 . S
C219 H222 0.950 . S
C220 C219 1.387 . S
C220 C223 1.387 . S
H221 C217 0.950 . S
H222 C219 0.950 . S
C223 C214 1.390 . S
C223 H216 0.950 . S
C223 C220 1.387 . S
C224 C225 1.387 . S
C224 H228 0.950 . S
C224 C233 1.390 . S
C225 C224 1.387 . S
C225 C227 1.387 . S
H226 C233 0.950 . S
C227 C225 1.387 . S
C227 C229 1.390 . S
C227 H231 0.950 . S
H228 C224 0.950 . S
C229 C227 1.390 . S
C229 C230 1.387 . S
C229 H232 0.950 . S
C230 C229 1.387 . S
C230 C233 1.387 . S
H231 C227 0.950 . S
H232 C229 0.950 . S
C233 C224 1.390 . S
C233 H226 0.950 . S
C233 C230 1.387 . S
C234 C235 1.387 . S
C234 H238 0.950 . S
C234 C243 1.390 . S
C235 C234 1.387 . S
C235 C237 1.387 . S
H236 C243 0.950 . S
C237 C235 1.387 . S
C237 C239 1.390 . S
C237 H241 0.950 . S
H238 C234 0.950 . S
C239 C237 1.390 . S
C239 C240 1.387 . S
C239 H242 0.950 . S
C240 C239 1.387 . S
C240 C243 1.387 . S
H241 C237 0.950 . S
H242 C239 0.950 . S
C243 C234 1.390 . S
C243 H236 0.950 . S
C243 C240 1.387 . S
C244 C245 1.387 . S
C244 H248 0.950 . S
C244 C253 1.390 . S
C245 C244 1.387 . S
C245 C247 1.387 . S
H246 C253 0.950 . S
C247 C245 1.387 . S
C247 C249 1.390 . S
C247 H251 0.950 . S
H248 C244 0.950 . S
C249 C247 1.390 . S
C249 C250 1.387 . S
C249 H252 0.950 . S
C250 C249 1.387 . S
C250 C253 1.387 . S
H251 C247 0.950 . S
H252 C249 0.950 . S
C253 C244 1.390 . S
C253 H246 0.950 . S
C253 C250 1.387 . S
C254 C255 1.387 . S
C254 H258 0.950 . S
C254 C263 1.390 . S
C255 C254 1.387 . S
C255 C257 1.387 . S
H256 C263 0.950 . S
C257 C255 1.387 . S
C257 C259 1.390 . S
C257 H261 0.950 . S
H258 C254 0.950 . S
C259 C257 1.390 . S
C259 C260 1.387 . S
C259 H262 0.950 . S
C260 C259 1.387 . S
C260 C263 1.387 . S
H261 C257 0.950 . S
H262 C259 0.950 . S
C263 C254 1.390 . S
C263 H256 0.950 . S
C263 C260 1.387 . S
C105 C8 1.513 . S
C110 C60 1.513 . S
C115 C21 1.511 . S
C120 C73 1.511 . S
C125 C86 1.511 . S
C130 C34 1.511 . S
C135 C99 1.511 . S
C140 C47 1.511 . S
C145 C0 1.261 . S
C150 C26 1.261 . S
C155 C13 1.261 . S
C160 C39 1.261 . S
C165 C78 1.261 . S
C170 C52 1.261 . S
C175 C65 1.262 . S
C180 C91 1.262 . S
C185 C75 1.362 . S
C190 C10 1.361 . S
C195 C23 1.361 . S
C200 C88 1.363 . S
C205 C101 1.362 . S
C210 C36 1.360 . S
C215 C49 1.363 . S
C220 C62 1.361 . S
C225 C83 1.273 . S
C230 C44 1.277 . S
C235 C5 1.277 . S
C240 C96 1.273 . S
C245 C18 1.277 . S
C250 C57 1.274 . S
C255 C70 1.273 . S
C260 C31 1.277 . S
