# Generated by pormake.
# Topology dft, (4)-cn, num edge types: 1
# Building blocks:
#     Node 0, Type 0, BuildingBlock: QUQFOY_clean_sbu_3, # of connection points: 4
#     Node 1, Type 0, BuildingBlock: QUQFOY_clean_sbu_3, # of connection points: 4
#     Node 2, Type 0, BuildingBlock: QUQFOY_clean_sbu_3, # of connection points: 4
#     Node 3, Type 0, BuildingBlock: QUQFOY_clean_sbu_3, # of connection points: 4
#     Node 4, Type 0, BuildingBlock: QUQFOY_clean_sbu_3, # of connection points: 4
#     Node 5, Type 0, BuildingBlock: QUQFOY_clean_sbu_3, # of connection points: 4
#     Node 6, Type 0, BuildingBlock: QUQFOY_clean_sbu_3, # of connection points: 4
#     Node 7, Type 0, BuildingBlock: QUQFOY_clean_sbu_3, # of connection points: 4
#     Edge 8, Type (0, 0), BuildingBlock: EZIPEK_clean_linker_0, # of connection points: 2
#     Edge 9, Type (0, 0), BuildingBlock: EZIPEK_clean_linker_0, # of connection points: 2
#     Edge 10, Type (0, 0), BuildingBlock: EZIPEK_clean_linker_0, # of connection points: 2
#     Edge 11, Type (0, 0), BuildingBlock: EZIPEK_clean_linker_0, # of connection points: 2
#     Edge 12, Type (0, 0), BuildingBlock: EZIPEK_clean_linker_0, # of connection points: 2
#     Edge 13, Type (0, 0), BuildingBlock: EZIPEK_clean_linker_0, # of connection points: 2
#     Edge 14, Type (0, 0), BuildingBlock: EZIPEK_clean_linker_0, # of connection points: 2
#     Edge 15, Type (0, 0), BuildingBlock: EZIPEK_clean_linker_0, # of connection points: 2
#     Edge 16, Type (0, 0), BuildingBlock: EZIPEK_clean_linker_0, # of connection points: 2
#     Edge 17, Type (0, 0), BuildingBlock: EZIPEK_clean_linker_0, # of connection points: 2
#     Edge 18, Type (0, 0), BuildingBlock: EZIPEK_clean_linker_0, # of connection points: 2
#     Edge 19, Type (0, 0), BuildingBlock: EZIPEK_clean_linker_0, # of connection points: 2
#     Edge 20, Type (0, 0), BuildingBlock: EZIPEK_clean_linker_0, # of connection points: 2
#     Edge 21, Type (0, 0), BuildingBlock: EZIPEK_clean_linker_0, # of connection points: 2
#     Edge 22, Type (0, 0), BuildingBlock: EZIPEK_clean_linker_0, # of connection points: 2
#     Edge 23, Type (0, 0), BuildingBlock: EZIPEK_clean_linker_0, # of connection points: 2
# Relax obj value: 0.179
# Max RMSD: 0.171
# Mean RMSD: 0.171
data_MOF--net-dft--node1-QUQFOY_clean_sbu_3--edge1-EZIPEK_clean_linker_0
_symmetry_space_group_name_H-M    P1
_symmetry_Int_Tables_number       1
_symmetry_cell_setting            triclinic
loop_
_symmetry_equiv_pos_as_xyz
'x, y, z'
_cell_length_a     27.206305
_cell_length_b     27.588328
_cell_length_c     31.606922
_cell_angle_alpha  89.504116
_cell_angle_beta   87.858086
_cell_angle_gamma 89.828362
loop_
_atom_site_label
_atom_site_type_symbol
_atom_site_fract_x
_atom_site_fract_y
_atom_site_fract_z
_atom_type_partial_charge
C0 C 0.23929 0.89779 0.16487 0.0
O1 O 0.20715 0.91647 0.14156 0.0
Cd2 Cd 0.21649 -0.01169 0.101 0.0
O3 O 0.28021 0.91913 0.16993 0.0
Cd4 Cd 0.31781 -0.00143 0.14665 0.0
C5 C 0.22067 0.06777 0.18273 0.0
O6 O 0.29919 -0.0197 0.07442 0.0
O7 O 0.33263 0.05008 0.08197 0.0
O8 O 0.39507 0.95584 0.15834 0.0
C9 C 0.31809 0.01759 0.05734 0.0
O10 O 0.19824 0.05301 0.15072 0.0
C11 C 0.41857 -0.00688 0.16919 0.0
O12 O 0.26339 0.05184 0.19069 0.0
O13 O 0.3945 0.03248 0.17238 0.0
C14 C 0.1149 0.28146 0.70273 0.0
O15 O 0.11971 0.32614 0.69543 0.0
Cd16 Cd 0.03525 0.33016 0.66587 0.0
O17 O 0.07353 0.26344 0.69599 0.0
Cd18 Cd 0.02012 0.33343 0.66659 0.0
C19 C 0.95085 0.25867 0.694 0.0
O20 O 0.06181 0.33534 0.59532 0.0
O21 O -0.01535 0.31843 0.59507 0.0
O22 O 0.06142 0.40697 0.69589 0.0
C23 C 0.02482 0.3258 0.57418 0.0
O24 O -0.0132 0.25016 0.66858 0.0
C25 C 0.02608 0.43512 0.68724 0.0
O26 O 0.94697 0.30167 0.70714 0.0
O27 O -0.01209 0.41599 0.67282 0.0
C28 C 0.81455 0.0895 0.19354 0.0
O29 O 0.84428 0.08492 0.16199 0.0
Cd30 Cd 0.8357 0.02874 0.10736 0.0
O31 O 0.77494 0.06474 0.197 0.0
Cd32 Cd 0.73302 0.00425 0.15136 0.0
C33 C 0.82678 0.92519 0.16825 0.0
O34 O 0.7544 0.04541 0.08492 0.0
O35 O 0.72302 -0.02581 0.07879 0.0
O36 O 0.65126 0.03955 0.16505 0.0
C37 C 0.73611 0.0139 0.06145 0.0
O38 O 0.85282 0.95199 0.14336 0.0
C39 C 0.63079 -0.00054 0.17468 0.0
O40 O 0.78172 0.93522 0.17621 0.0
O41 O 0.65839 0.96244 0.17689 0.0
C42 C 0.92424 0.82019 0.66729 0.0
O43 O 0.93921 0.84984 0.63873 0.0
Cd44 Cd 0.0046 0.8375 0.58904 0.0
O45 O 0.94561 0.77936 0.6721 0.0
Cd46 Cd 0.02002 0.73986 0.6381 0.0
C47 C 0.09557 0.83539 0.65946 0.0
O48 O -0.01084 0.7555 0.56821 0.0
O49 O 0.05985 0.72008 0.56852 0.0
O50 O -0.01617 0.66126 0.65801 0.0
C51 C 0.02301 0.73332 0.54793 0.0
O52 O 0.07516 0.85869 0.63 0.0
C53 C 0.02398 0.64294 0.66981 0.0
O54 O 0.08239 0.79225 0.66865 0.0
O55 O 0.06129 0.67041 0.66934 0.0
C56 C 0.22935 0.12989 0.7663 0.0
O57 O 0.19908 0.11479 0.79487 0.0
Cd58 Cd 0.20736 0.04464 0.83669 0.0
O59 O 0.2696 0.10744 0.75755 0.0
Cd60 Cd 0.31083 0.03282 0.78636 0.0
C61 C 0.21682 0.95919 0.75846 0.0
O62 O 0.28943 0.05506 0.85869 0.0
O63 O 0.3248 -0.01463 0.85193 0.0
O64 O 0.39141 0.07163 0.77783 0.0
C65 C 0.30944 0.01907 0.87599 0.0
O66 O 0.19152 -0.02137 0.78846 0.0
C67 C 0.41269 0.03526 0.76096 0.0
O68 O 0.26111 -0.02786 0.75047 0.0
O69 O 0.38602 -0.00089 0.7528 0.0
C70 C 0.93342 0.19627 0.30396 0.0
O71 O 0.94203 0.18183 0.34117 0.0
Cd72 Cd 0.01438 0.20461 0.37411 0.0
O73 O 0.95874 0.23038 0.28623 0.0
Cd74 Cd 0.02529 0.28892 0.30647 0.0
C75 C 0.09989 0.19397 0.28925 0.0
O76 O 0.00047 0.28895 0.38018 0.0
O77 O 0.07513 0.31191 0.36764 0.0
O78 O -0.02444 0.35649 0.28042 0.0
C79 C 0.03865 0.30839 0.39357 0.0
O80 O 0.08092 0.17788 0.32409 0.0
C81 C 0.01216 0.38321 0.27029 0.0
O82 O 0.08634 0.23445 0.27391 0.0
O83 O 0.05449 0.36403 0.27229 0.0
C84 C 0.80629 0.94186 0.76792 0.0
O85 O 0.83614 0.95635 0.79501 0.0
Cd86 Cd 0.82263 0.02002 0.84354 0.0
O87 O 0.76535 -0.0364 0.76318 0.0
Cd88 Cd 0.72428 0.03812 0.79253 0.0
C89 C 0.82322 0.11122 0.76962 0.0
O90 O 0.73825 0.00925 0.86301 0.0
O91 O 0.70626 0.08051 0.86106 0.0
O92 O 0.64955 -0.00408 0.77383 0.0
C93 C 0.71897 0.04423 0.88293 0.0
O94 O 0.84238 0.09204 0.80185 0.0
C95 C 0.6249 0.03395 0.76635 0.0
O96 O 0.78192 0.09655 0.75686 0.0
O97 O 0.64747 0.07409 0.76776 0.0
C98 C 0.122 0.7682 0.25282 0.0
O99 O 0.10743 0.79846 0.28063 0.0
Cd100 Cd 0.03976 0.79331 0.32876 0.0
O101 O 0.0987 0.72867 0.24738 0.0
Cd102 Cd 0.02122 0.69187 0.28013 0.0
C103 C 0.95022 0.79024 0.25521 0.0
O104 O 0.04605 0.71105 0.35005 0.0
O105 O -0.0272 0.68249 0.34873 0.0
O106 O 0.05438 0.60959 0.27318 0.0
C107 C 0.00858 0.69559 0.3704 0.0
O108 O 0.97067 0.8125 0.28491 0.0
C109 C 0.01615 0.59185 0.25758 0.0
O110 O 0.96241 0.74687 0.24585 0.0
O111 O -0.01838 0.62111 0.24938 0.0
C112 C 0.27152 0.02626 -0.00831 0.0
C113 C 0.31755 0.02418 0.01098 0.0
C114 C 0.35949 0.02099 0.94107 0.0
C115 C 0.31302 0.01683 0.92242 0.0
N116 N 0.22535 0.00551 0.93062 0.0
N117 N 0.40576 0.01582 0.00514 0.0
C118 C 0.26912 0.01671 0.94792 0.0
C119 C 0.3618 0.02069 -0.01402 0.0
N120 N 0.23032 0.03909 0.01502 0.0
N121 N 0.40109 0.02698 0.91596 0.0
H122 H 0.40891 0.01786 0.03784 0.0
H123 H 0.43859 0.00719 -0.01111 0.0
H124 H 0.4008 0.02718 0.88298 0.0
H125 H 0.43528 0.03534 0.92769 0.0
H126 H 0.19629 0.04517 0.00186 0.0
H127 H 0.2317 0.04936 0.04664 0.0
H128 H 0.1928 0.00067 0.94855 0.0
H129 H 0.2228 -0.0044 0.89902 0.0
C130 C 0.01028 0.35899 0.50195 0.0
C131 C 0.02945 0.3217 0.52778 0.0
C132 C 0.06133 0.27854 0.46502 0.0
C133 C 0.04267 0.31617 0.43933 0.0
N134 N 0.00911 0.39634 0.4321 0.0
N135 N 0.07852 0.2493 0.53556 0.0
C136 C 0.01997 0.35769 0.4575 0.0
C137 C 0.05683 0.28256 0.50978 0.0
N138 N -0.01742 0.39537 0.51994 0.0
N139 N 0.08159 0.23814 0.44651 0.0
H140 H 0.07305 0.24878 0.5684 0.0
H141 H 0.10389 0.22348 0.52481 0.0
H142 H 0.08819 0.23529 0.41391 0.0
H143 H 0.09003 0.20659 0.463 0.0
H144 H 0.96311 0.42075 0.50265 0.0
H145 H -0.02352 0.39865 0.55257 0.0
H146 H -0.00374 0.42955 0.44333 0.0
H147 H 0.01745 0.39661 0.39962 0.0
C148 C 0.76683 0.05051 0.94776 0.0
C149 C 0.72058 0.04535 0.92943 0.0
C150 C 0.68288 0.02572 -0.001 0.0
C151 C 0.73055 0.0236 0.01584 0.0
N152 N 0.81874 0.02605 0.00449 0.0
N153 N 0.63434 0.02623 0.9361 0.0
C154 C 0.77282 0.0342 -0.01017 0.0
C155 C 0.67836 0.0327 0.95467 0.0
N156 N 0.80478 0.07174 0.92503 0.0
N157 N 0.64206 0.02286 0.02547 0.0
H158 H 0.62938 0.03384 0.90416 0.0
H159 H 0.60358 0.01122 0.95176 0.0
H160 H 0.64398 0.01862 0.05818 0.0
H161 H 0.60645 0.02883 0.01559 0.0
H162 H 0.8383 0.08031 0.93796 0.0
H163 H 0.80063 0.0857 0.89457 0.0
H164 H 0.85075 0.02882 -0.01451 0.0
H165 H 0.82454 0.0113 0.03433 0.0
C166 C 0.01634 0.66427 0.44436 0.0
C167 C 0.00418 0.70261 0.41652 0.0
C168 C 0.00891 0.76098 0.47379 0.0
C169 C 0.01829 0.7225 0.50249 0.0
N170 N 0.01987 0.63637 0.51709 0.0
N171 N -0.02407 0.78447 0.40651 0.0
C172 C 0.01895 0.67369 0.48839 0.0
C173 C -0.00377 0.75006 0.43189 0.0
N174 N 0.02641 0.61921 0.42858 0.0
N175 N 0.01472 0.80801 0.48583 0.0
H176 H 0.9649 0.7769 0.376 0.0
H177 H 0.96521 0.81866 0.41723 0.0
H178 H 0.02675 0.81743 0.51556 0.0
H179 H 0.01292 0.83731 0.46494 0.0
H180 H 0.04122 0.59123 0.44645 0.0
H181 H 0.02249 0.61063 0.39678 0.0
H182 H 0.01553 0.60017 0.50897 0.0
H183 H 0.0204 0.64172 0.54967 0.0
C184 C 0.50242 -0.02334 0.13699 0.0
C185 C 0.47287 -0.00786 0.17238 0.0
C186 C 0.54732 0.01374 0.20965 0.0
C187 C 0.57657 -0.0053 0.17558 0.0
N188 N 0.58226 0.95071 0.10968 0.0
N189 N 0.46658 0.01823 0.24496 0.0
C190 C 0.55417 -0.02647 0.14035 0.0
C191 C 0.49515 0.00882 0.20947 0.0
N192 N 0.48153 -0.03178 0.09902 0.0
N193 N 0.56941 0.03683 0.24194 0.0
H194 H 0.42844 0.01424 0.24606 0.0
H195 H 0.48078 0.02593 0.27427 0.0
H196 H 0.60753 0.03895 0.24399 0.0
H197 H 0.55014 0.05633 0.26526 0.0
H198 H 0.50187 0.96291 0.07086 0.0
H199 H 0.44397 -0.02869 0.09433 0.0
H200 H 0.56743 0.92936 0.08634 0.0
H201 H 0.62056 0.94991 0.10905 0.0
C202 C -0.00023 0.51655 0.71503 0.0
C203 C 0.03111 0.48849 0.68789 0.0
C204 C 0.05869 0.56193 0.64994 0.0
C205 C 0.02863 0.59025 0.67797 0.0
N206 N -0.02264 0.59644 0.74143 0.0
N207 N 0.0968 0.48454 0.63425 0.0
C208 C 0.00109 0.56809 0.71182 0.0
C209 C 0.06298 0.51129 0.65721 0.0
N210 N 0.96829 0.49379 0.74342 0.0
N211 N 0.0803 0.58275 0.61445 0.0
H212 H 0.09911 0.4469 0.63578 0.0
H213 H 0.12519 0.49997 0.61573 0.0
H214 H 0.07795 0.61958 0.60725 0.0
H215 H 0.09704 0.563 0.58994 0.0
H216 H 0.94034 0.51152 0.76059 0.0
H217 H 0.96868 0.45636 0.74845 0.0
H218 H 0.96047 0.58294 0.76915 0.0
H219 H -0.02206 0.63424 0.73996 0.0
C220 C 0.54778 0.05366 0.72755 0.0
C221 C 0.57069 0.03201 0.7627 0.0
C222 C 0.49027 0.00551 0.79174 0.0
C223 C 0.46701 0.03159 0.75914 0.0
N224 N 0.47234 0.08428 0.69805 0.0
N225 N 0.5627 -0.00334 0.83297 0.0
C226 C 0.49542 0.05685 0.72759 0.0
C227 C 0.54173 0.01006 0.79592 0.0
N228 N 0.57599 0.06961 0.69358 0.0
N229 N 0.46322 -0.02345 0.81911 0.0
H230 H 0.59992 0.00089 0.83851 0.0
H231 H 0.54239 -0.01395 0.86005 0.0
H232 H 0.42506 -0.02632 0.81877 0.0
H233 H 0.47903 0.95225 0.84008 0.0
H234 H 0.56151 0.08145 0.66526 0.0
H235 H 0.61429 0.06715 0.69236 0.0
H236 H 0.49076 0.10787 0.67708 0.0
H237 H 0.43414 0.08555 0.69618 0.0
C238 C 0.03079 0.45871 0.22734 0.0
C239 C 0.0067 0.43628 0.263 0.0
C240 C -0.02065 0.51616 0.28851 0.0
C241 C 0.0091 0.53865 0.25621 0.0
N242 N 0.06539 0.53239 0.19593 0.0
N243 N 0.96497 0.44475 0.33171 0.0
C244 C 0.03541 0.5102 0.2258 0.0
C245 C -0.01789 0.46517 0.2944 0.0
N246 N 0.04806 0.43077 0.1945 0.0
N247 N 0.94907 0.54352 0.31436 0.0
H248 H 0.96711 0.40794 0.33877 0.0
H249 H 0.95282 0.46496 0.35776 0.0
H250 H 0.94794 0.58126 0.3133 0.0
H251 H 0.92205 0.52858 0.33469 0.0
H252 H 0.06202 0.44494 0.16589 0.0
H253 H 0.04419 0.39315 0.19437 0.0
H254 H 0.08996 0.51373 0.17591 0.0
H255 H 0.06761 0.57001 0.19271 0.0
C256 C 0.18122 0.17633 0.25091 0.0
C257 C 0.13278 0.1617 0.26346 0.0
C258 C 0.14751 0.08259 0.23077 0.0
C259 C 0.19328 0.09925 0.21342 0.0
N260 N 0.25196 0.16398 0.20297 0.0
N261 N 0.06611 0.10494 0.25666 0.0
C262 C 0.20993 0.14663 0.22259 0.0
C263 C 0.11494 0.11583 0.25117 0.0
N264 N 0.20018 0.21787 0.26687 0.0
N265 N 0.13558 0.03457 0.22872 0.0
H266 H 0.04027 0.12933 0.26923 0.0
H267 H 0.05036 0.07395 0.24436 0.0
H268 H 0.15914 0.00863 0.21513 0.0
H269 H 0.1048 0.01973 0.24453 0.0
H270 H 0.23686 0.22797 0.26235 0.0
H271 H 0.18018 0.24027 0.28767 0.0
H272 H 0.26312 0.19996 0.20471 0.0
H273 H 0.27392 0.14323 0.18229 0.0
C274 C 0.86508 0.22817 0.71284 0.0
C275 C 0.9167 0.21963 0.70954 0.0
C276 C 0.90264 0.13614 0.73391 0.0
C277 C 0.85291 0.14748 0.74475 0.0
N278 N 0.78775 0.20707 0.74884 0.0
N279 N -0.0149 0.16722 0.72645 0.0
C280 C 0.83414 0.19419 0.73514 0.0
C281 C 0.93571 0.17396 0.72235 0.0
N282 N 0.84529 0.26777 0.69351 0.0
N283 N 0.91827 0.089 0.73392 0.0
H284 H 0.01091 0.19467 0.72178 0.0
H285 H -0.00015 0.13583 0.73957 0.0
H286 H 0.89463 0.05996 0.74055 0.0
H287 H 0.95315 0.07858 0.72256 0.0
H288 H 0.80752 0.27329 0.69168 0.0
H289 H 0.86634 0.29225 0.67527 0.0
H290 H 0.77433 0.24238 0.74667 0.0
H291 H 0.76413 0.18354 0.76561 0.0
C292 C 0.87356 0.84025 0.2544 0.0
C293 C 0.91213 0.8165 0.23135 0.0
C294 C 0.88238 0.85241 0.16579 0.0
C295 C 0.85084 0.88365 0.18987 0.0
N296 N 0.82148 0.91098 0.25915 0.0
N297 N 0.95688 0.80435 0.16465 0.0
C298 C 0.84713 0.8782 0.23473 0.0
C299 C 0.91723 0.82314 0.18677 0.0
N300 N 0.86192 0.82627 0.29513 0.0
N301 N 0.87857 0.8502 0.12288 0.0
H302 H -0.01589 0.7837 0.17857 0.0
H303 H 0.96503 0.81291 0.13299 0.0
H304 H 0.85233 0.87 0.10671 0.0
H305 H 0.89757 0.82491 0.10416 0.0
H306 H 0.83112 0.83921 0.31213 0.0
H307 H 0.87991 0.79782 0.31016 0.0
H308 H 0.82287 0.91157 0.29205 0.0
H309 H 0.80249 0.94039 0.24698 0.0
C310 C 0.1288 0.85997 0.72998 0.0
C311 C 0.13257 0.86064 0.68495 0.0
C312 C 0.19438 0.92503 0.68741 0.0
C313 C 0.19305 0.9218 0.73238 0.0
N314 N 0.17073 0.87459 0.79476 0.0
N315 N 0.18029 0.8832 0.62197 0.0
C316 C 0.16416 0.88535 0.75307 0.0
C317 C 0.16914 0.8897 0.66404 0.0
N318 N 0.08972 0.83847 0.75103 0.0
N319 N 0.21659 0.96332 0.66682 0.0
H320 H 0.16385 0.85638 0.60425 0.0
H321 H 0.20964 0.90058 0.60613 0.0
H322 H 0.23342 -0.00838 0.68229 0.0
H323 H 0.21383 -0.03048 0.63442 0.0
H324 H 0.08334 0.84157 0.78363 0.0
H325 H 0.06067 0.8223 0.73599 0.0
H326 H 0.15348 0.8454 0.81026 0.0
H327 H 0.19762 0.89123 0.81227 0.0
C328 C 0.81783 0.89819 0.6976 0.0
C329 C 0.8209 0.89882 0.74238 0.0
C330 C 0.88211 0.83363 0.73939 0.0
C331 C 0.88132 0.83526 0.69451 0.0
N332 N 0.83305 0.8517 0.63373 0.0
N333 N 0.83785 0.85246 0.80514 0.0
C334 C 0.84348 0.86143 0.67472 0.0
C335 C 0.84677 0.86121 0.76297 0.0
N336 N 0.79431 0.93418 0.67628 0.0
N337 N 0.9182 0.80927 0.75975 0.0
H338 H 0.81095 0.87146 0.8227 0.0
H339 H 0.85289 0.82305 0.82111 0.0
H340 H 0.94487 0.78799 0.74451 0.0
H341 H 0.92336 0.81264 0.7921 0.0
H342 H 0.79679 0.93777 0.64342 0.0
H343 H 0.77515 0.96247 0.69085 0.0
H344 H 0.80327 0.86704 0.61865 0.0
H345 H 0.85103 0.82411 0.61676 0.0
C346 C 0.23182 0.8424 0.22957 0.0
C347 C 0.22727 0.85036 0.18541 0.0
C348 C 0.16647 0.78527 0.18254 0.0
C349 C 0.1669 0.78144 0.22726 0.0
N350 N 0.21459 0.78834 0.28927 0.0
N351 N 0.20891 0.8148 0.11858 0.0
C352 C 0.20523 0.80359 0.24917 0.0
C353 C 0.20106 0.81641 0.16147 0.0
N354 N 0.25772 0.87356 0.25357 0.0
N355 N 0.13128 0.76245 0.16041 0.0
H356 H 0.23504 0.83679 0.10287 0.0
H357 H 0.19369 0.78845 0.09966 0.0
H358 H 0.10669 0.73754 0.17403 0.0
H359 H 0.12545 0.76965 0.12857 0.0
H360 H 0.25624 0.87261 0.28655 0.0
H361 H 0.27892 0.9019 0.24114 0.0
H362 H 0.24448 0.80039 0.30595 0.0
H363 H 0.19514 0.75971 0.30375 0.0
C364 C 0.1781 0.25442 0.75405 0.0
C365 C 0.15633 0.24993 0.71425 0.0
C366 C 0.19685 0.17152 0.70266 0.0
C367 C 0.21602 0.17461 0.74355 0.0
N368 N 0.23825 0.22334 0.80243 0.0
N369 N 0.15715 0.21328 0.64529 0.0
C370 C 0.21129 0.21788 0.76718 0.0
C371 C 0.16993 0.21139 0.6867 0.0
N372 N 0.16462 0.29162 0.78033 0.0
N373 N 0.20161 0.12944 0.68035 0.0
H374 H 0.13807 0.24257 0.63264 0.0
H375 H 0.16945 0.18842 0.62264 0.0
H376 H 0.22253 0.10014 0.69056 0.0
H377 H 0.18303 0.12265 0.65282 0.0
H378 H 0.1748 0.29375 0.81167 0.0
H379 H 0.1408 0.31929 0.77152 0.0
H380 H 0.23973 0.25544 0.8194 0.0
H381 H 0.26292 0.19682 0.81224 0.0
C382 C 0.89826 0.11777 0.27938 0.0
C383 C 0.89673 0.1694 0.27977 0.0
C384 C 0.83135 0.16854 0.22841 0.0
C385 C 0.83215 0.11724 0.22953 0.0
N386 N 0.85523 0.04351 0.26489 0.0
N387 N 0.85328 0.24317 0.263 0.0
C388 C 0.86147 0.09218 0.25847 0.0
C389 C 0.86058 0.19469 0.25682 0.0
N390 N 0.93697 0.09295 0.29565 0.0
N391 N 0.80373 0.19207 0.19941 0.0
H392 H 0.87295 0.26307 0.28456 0.0
H393 H 0.82463 0.26259 0.24986 0.0
H394 H 0.78009 0.17367 0.17986 0.0
H395 H 0.80601 0.22921 0.19348 0.0
H396 H 0.94219 0.05581 0.29175 0.0
H397 H 0.96703 0.10954 0.30881 0.0
H398 H 0.87247 0.02414 0.28861 0.0
H399 H 0.82888 0.02365 0.24943 0.0
loop_
_geom_bond_atom_site_label_1
_geom_bond_atom_site_label_2
_geom_bond_distance
_geom_bond_site_symmetry_2
_ccdc_geom_bond_type
C0 O1 1.306 . S
C0 O3 1.160 . S
O1 C0 1.306 . S
O1 Cd2 2.228 1_565 S
Cd2 O1 2.228 1_545 S
Cd2 O6 2.273 . S
Cd2 O10 2.277 . S
O3 C0 1.160 . S
O3 Cd4 2.203 1_565 S
Cd4 O3 2.203 1_545 S
Cd4 O6 2.411 . S
Cd4 O7 2.333 . S
Cd4 O8 2.352 1_545 S
Cd4 O12 2.277 . S
Cd4 O13 2.356 . S
C5 O10 1.209 . S
C5 O12 1.226 . S
O6 Cd2 2.273 . S
O6 Cd4 2.411 . S
O6 C9 1.320 . S
O7 Cd4 2.333 . S
O7 C9 1.214 . S
O8 Cd4 2.352 1_565 S
O8 C11 1.258 1_565 S
C9 O6 1.320 . S
C9 O7 1.214 . S
O10 Cd2 2.277 . S
O10 C5 1.209 . S
C11 O8 1.258 1_545 S
C11 O13 1.282 . S
O12 Cd4 2.277 . S
O12 C5 1.226 . S
O13 Cd4 2.356 . S
O13 C11 1.282 . S
C14 O15 1.306 . S
C14 O17 1.160 . S
O15 C14 1.306 . S
O15 Cd16 2.228 . S
Cd16 O15 2.228 . S
Cd16 O20 2.273 . S
Cd16 O24 2.277 . S
O17 C14 1.160 . S
O17 Cd18 2.203 . S
Cd18 O17 2.203 . S
Cd18 O20 2.411 . S
Cd18 O21 2.333 . S
Cd18 O22 2.352 . S
Cd18 O26 2.277 1_455 S
Cd18 O27 2.356 . S
C19 O24 1.209 1_655 S
C19 O26 1.226 . S
O20 Cd16 2.273 . S
O20 Cd18 2.411 . S
O20 C23 1.320 . S
O21 Cd18 2.333 . S
O21 C23 1.214 . S
O22 Cd18 2.352 . S
O22 C25 1.258 . S
C23 O20 1.320 . S
C23 O21 1.214 . S
O24 Cd16 2.277 . S
O24 C19 1.209 1_455 S
C25 O22 1.258 . S
C25 O27 1.282 . S
O26 Cd18 2.277 1_655 S
O26 C19 1.226 . S
O27 Cd18 2.356 . S
O27 C25 1.282 . S
C28 O29 1.306 . S
C28 O31 1.160 . S
O29 C28 1.306 . S
O29 Cd30 2.228 . S
Cd30 O29 2.228 . S
Cd30 O34 2.273 . S
Cd30 O38 2.277 . S
O31 C28 1.160 . S
O31 Cd32 2.203 . S
Cd32 O31 2.203 . S
Cd32 O34 2.411 . S
Cd32 O35 2.333 . S
Cd32 O36 2.352 . S
Cd32 O40 2.277 1_545 S
Cd32 O41 2.356 . S
C33 O38 1.209 1_565 S
C33 O40 1.226 . S
O34 Cd30 2.273 . S
O34 Cd32 2.411 . S
O34 C37 1.320 . S
O35 Cd32 2.333 . S
O35 C37 1.214 . S
O36 Cd32 2.352 . S
O36 C39 1.258 . S
C37 O34 1.320 . S
C37 O35 1.214 . S
O38 Cd30 2.277 . S
O38 C33 1.209 1_545 S
C39 O36 1.258 . S
C39 O41 1.282 . S
O40 Cd32 2.277 1_565 S
O40 C33 1.226 . S
O41 Cd32 2.356 . S
O41 C39 1.282 . S
C42 O43 1.306 . S
C42 O45 1.160 . S
O43 C42 1.306 . S
O43 Cd44 2.228 1_655 S
Cd44 O43 2.228 1_455 S
Cd44 O48 2.273 . S
Cd44 O52 2.277 . S
O45 C42 1.160 . S
O45 Cd46 2.203 1_655 S
Cd46 O45 2.203 1_455 S
Cd46 O48 2.411 . S
Cd46 O49 2.333 . S
Cd46 O50 2.352 1_455 S
Cd46 O54 2.277 . S
Cd46 O55 2.356 . S
C47 O52 1.209 . S
C47 O54 1.226 . S
O48 Cd44 2.273 . S
O48 Cd46 2.411 . S
O48 C51 1.320 . S
O49 Cd46 2.333 . S
O49 C51 1.214 . S
O50 Cd46 2.352 1_655 S
O50 C53 1.258 1_655 S
C51 O48 1.320 . S
C51 O49 1.214 . S
O52 Cd44 2.277 . S
O52 C47 1.209 . S
C53 O50 1.258 1_455 S
C53 O55 1.282 . S
O54 Cd46 2.277 . S
O54 C47 1.226 . S
O55 Cd46 2.356 . S
O55 C53 1.282 . S
C56 O57 1.306 . S
C56 O59 1.160 . S
O57 C56 1.306 . S
O57 Cd58 2.228 . S
Cd58 O57 2.228 . S
Cd58 O62 2.273 . S
Cd58 O66 2.277 . S
O59 C56 1.160 . S
O59 Cd60 2.203 . S
Cd60 O59 2.203 . S
Cd60 O62 2.411 . S
Cd60 O63 2.333 . S
Cd60 O64 2.352 . S
Cd60 O68 2.277 1_545 S
Cd60 O69 2.356 . S
C61 O66 1.209 1_565 S
C61 O68 1.226 . S
O62 Cd58 2.273 . S
O62 Cd60 2.411 . S
O62 C65 1.320 . S
O63 Cd60 2.333 . S
O63 C65 1.214 . S
O64 Cd60 2.352 . S
O64 C67 1.258 . S
C65 O62 1.320 . S
C65 O63 1.214 . S
O66 Cd58 2.277 . S
O66 C61 1.209 1_545 S
C67 O64 1.258 . S
C67 O69 1.282 . S
O68 Cd60 2.277 1_565 S
O68 C61 1.226 . S
O69 Cd60 2.356 . S
O69 C67 1.282 . S
C70 O71 1.306 . S
C70 O73 1.160 . S
O71 C70 1.306 . S
O71 Cd72 2.228 1_655 S
Cd72 O71 2.228 1_455 S
Cd72 O76 2.273 . S
Cd72 O80 2.277 . S
O73 C70 1.160 . S
O73 Cd74 2.203 1_655 S
Cd74 O73 2.203 1_455 S
Cd74 O76 2.411 . S
Cd74 O77 2.333 . S
Cd74 O78 2.352 1_455 S
Cd74 O82 2.277 . S
Cd74 O83 2.356 . S
C75 O80 1.209 . S
C75 O82 1.226 . S
O76 Cd72 2.273 . S
O76 Cd74 2.411 . S
O76 C79 1.320 . S
O77 Cd74 2.333 . S
O77 C79 1.214 . S
O78 Cd74 2.352 1_655 S
O78 C81 1.258 1_655 S
C79 O76 1.320 . S
C79 O77 1.214 . S
O80 Cd72 2.277 . S
O80 C75 1.209 . S
C81 O78 1.258 1_455 S
C81 O83 1.282 . S
O82 Cd74 2.277 . S
O82 C75 1.226 . S
O83 Cd74 2.356 . S
O83 C81 1.282 . S
C84 O85 1.306 . S
C84 O87 1.160 . S
O85 C84 1.306 . S
O85 Cd86 2.228 1_565 S
Cd86 O85 2.228 1_545 S
Cd86 O90 2.273 . S
Cd86 O94 2.277 . S
O87 C84 1.160 . S
O87 Cd88 2.203 1_565 S
Cd88 O87 2.203 1_545 S
Cd88 O90 2.411 . S
Cd88 O91 2.333 . S
Cd88 O92 2.352 1_545 S
Cd88 O96 2.277 . S
Cd88 O97 2.356 . S
C89 O94 1.209 . S
C89 O96 1.226 . S
O90 Cd86 2.273 . S
O90 Cd88 2.411 . S
O90 C93 1.320 . S
O91 Cd88 2.333 . S
O91 C93 1.214 . S
O92 Cd88 2.352 1_565 S
O92 C95 1.258 1_565 S
C93 O90 1.320 . S
C93 O91 1.214 . S
O94 Cd86 2.277 . S
O94 C89 1.209 . S
C95 O92 1.258 1_545 S
C95 O97 1.282 . S
O96 Cd88 2.277 . S
O96 C89 1.226 . S
O97 Cd88 2.356 . S
O97 C95 1.282 . S
C98 O99 1.306 . S
C98 O101 1.160 . S
O99 C98 1.306 . S
O99 Cd100 2.228 . S
Cd100 O99 2.228 . S
Cd100 O104 2.273 . S
Cd100 O108 2.277 . S
O101 C98 1.160 . S
O101 Cd102 2.203 . S
Cd102 O101 2.203 . S
Cd102 O104 2.411 . S
Cd102 O105 2.333 . S
Cd102 O106 2.352 . S
Cd102 O110 2.277 1_455 S
Cd102 O111 2.356 . S
C103 O108 1.209 1_655 S
C103 O110 1.226 . S
O104 Cd100 2.273 . S
O104 Cd102 2.411 . S
O104 C107 1.320 . S
O105 Cd102 2.333 . S
O105 C107 1.214 . S
O106 Cd102 2.352 . S
O106 C109 1.258 . S
C107 O104 1.320 . S
C107 O105 1.214 . S
O108 Cd100 2.277 . S
O108 C103 1.209 1_455 S
C109 O106 1.258 . S
C109 O111 1.282 . S
O110 Cd102 2.277 1_655 S
O110 C103 1.226 . S
O111 Cd102 2.356 . S
O111 C109 1.282 . S
C112 C113 1.363 . S
C112 C118 1.379 1_554 S
C112 N120 1.356 . S
C113 C112 1.363 . S
C113 C119 1.363 . S
C114 C115 1.363 . S
C114 C119 1.379 1_556 S
C114 N121 1.356 1_545 S
C115 C114 1.363 . S
C115 C118 1.363 . S
N116 C118 1.356 . S
N116 H128 0.984 . S
N116 H129 0.985 . S
N117 C119 1.356 1_565 S
N117 H122 0.984 1_565 S
N117 H123 0.985 . S
C118 C112 1.379 1_556 S
C118 C115 1.363 . S
C118 N116 1.356 . S
C119 C113 1.363 . S
C119 C114 1.379 1_554 S
C119 N117 1.356 1_545 S
N120 C112 1.356 . S
N120 H126 0.984 . S
N120 H127 0.984 . S
N121 C114 1.356 1_565 S
N121 H124 0.984 . S
N121 H125 0.985 . S
H122 N117 0.984 1_545 S
H123 N117 0.985 . S
H124 N121 0.984 . S
H125 N121 0.985 . S
H126 N120 0.984 . S
H127 N120 0.984 . S
H128 N116 0.984 . S
H129 N116 0.985 . S
C130 C131 1.363 . S
C130 C136 1.379 . S
C130 N138 1.357 1_455 S
C131 C130 1.363 . S
C131 C137 1.363 . S
C132 C133 1.363 . S
C132 C137 1.379 . S
C132 N139 1.356 . S
C133 C132 1.363 . S
C133 C136 1.363 . S
N134 C136 1.356 . S
N134 H146 0.984 1_455 S
N134 H147 0.985 . S
N135 C137 1.356 . S
N135 H140 0.984 . S
N135 H141 0.985 . S
C136 C130 1.379 . S
C136 C133 1.363 . S
C136 N134 1.356 . S
C137 C131 1.363 . S
C137 C132 1.379 . S
C137 N135 1.356 . S
N138 C130 1.357 1_655 S
N138 H144 0.983 . S
N138 H145 0.985 1_655 S
N139 C132 1.356 . S
N139 H142 0.984 . S
N139 H143 0.985 . S
H140 N135 0.984 . S
H141 N135 0.985 . S
H142 N139 0.984 . S
H143 N139 0.985 . S
H144 N138 0.983 . S
H145 N138 0.985 1_455 S
H146 N134 0.984 1_655 S
H147 N134 0.985 . S
C148 C149 1.363 . S
C148 C154 1.379 1_556 S
C148 N156 1.356 . S
C149 C148 1.363 . S
C149 C155 1.363 . S
C150 C151 1.363 . S
C150 C155 1.379 1_554 S
C150 N157 1.356 1_545 S
C151 C150 1.363 . S
C151 C154 1.363 . S
N152 C154 1.356 . S
N152 H164 0.984 . S
N152 H165 0.985 . S
N153 C155 1.356 1_565 S
N153 H158 0.984 1_565 S
N153 H159 0.985 . S
C154 C148 1.379 1_554 S
C154 C151 1.363 . S
C154 N152 1.356 . S
C155 C149 1.363 . S
C155 C150 1.379 1_556 S
C155 N153 1.356 1_545 S
N156 C148 1.356 . S
N156 H162 0.984 . S
N156 H163 0.984 . S
N157 C150 1.356 1_565 S
N157 H160 0.984 . S
N157 H161 0.985 . S
H158 N153 0.984 1_545 S
H159 N153 0.985 . S
H160 N157 0.984 . S
H161 N157 0.985 . S
H162 N156 0.984 . S
H163 N156 0.984 . S
H164 N152 0.984 . S
H165 N152 0.985 . S
C166 C167 1.363 . S
C166 C172 1.379 . S
C166 N174 1.357 1_455 S
C167 C166 1.363 . S
C167 C173 1.363 . S
C168 C169 1.363 . S
C168 C173 1.379 . S
C168 N175 1.356 . S
C169 C168 1.363 . S
C169 C172 1.363 . S
N170 C172 1.356 . S
N170 H182 0.984 1_455 S
N170 H183 0.985 . S
N171 C173 1.356 . S
N171 H176 0.984 . S
N171 H177 0.985 . S
C172 C166 1.379 . S
C172 C169 1.363 . S
C172 N170 1.356 . S
C173 C167 1.363 . S
C173 C168 1.379 . S
C173 N171 1.356 . S
N174 C166 1.357 1_655 S
N174 H180 0.983 . S
N174 H181 0.985 1_655 S
N175 C168 1.356 . S
N175 H178 0.984 . S
N175 H179 0.985 . S
H176 N171 0.984 . S
H177 N171 0.985 . S
H178 N175 0.984 . S
H179 N175 0.985 . S
H180 N174 0.983 . S
H181 N174 0.985 1_455 S
H182 N170 0.984 1_655 S
H183 N170 0.985 . S
C184 C185 1.363 . S
C184 C190 1.379 . S
C184 N192 1.356 1_545 S
C185 C184 1.363 . S
C185 C191 1.363 . S
C186 C187 1.363 . S
C186 C191 1.379 . S
C186 N193 1.356 . S
C187 C186 1.363 . S
C187 C190 1.363 . S
N188 C190 1.356 . S
N188 H200 0.984 . S
N188 H201 0.985 . S
N189 C191 1.356 . S
N189 H194 0.984 . S
N189 H195 0.985 . S
C190 C184 1.379 . S
C190 C187 1.363 . S
C190 N188 1.356 . S
C191 C185 1.363 . S
C191 C186 1.379 . S
C191 N189 1.356 . S
N192 C184 1.356 1_565 S
N192 H198 0.984 . S
N192 H199 0.984 . S
N193 C186 1.356 . S
N193 H196 0.984 . S
N193 H197 0.985 . S
H194 N189 0.984 . S
H195 N189 0.985 . S
H196 N193 0.984 . S
H197 N193 0.985 . S
H198 N192 0.984 . S
H199 N192 0.984 . S
H200 N188 0.984 . S
H201 N188 0.985 . S
C202 C203 1.363 . S
C202 C208 1.379 . S
C202 N210 1.356 . S
C203 C202 1.363 . S
C203 C209 1.363 . S
C204 C205 1.363 . S
C204 C209 1.379 . S
C204 N211 1.356 . S
C205 C204 1.363 . S
C205 C208 1.363 . S
N206 C208 1.356 1_655 S
N206 H218 0.984 . S
N206 H219 0.985 . S
N207 C209 1.356 . S
N207 H212 0.984 . S
N207 H213 0.985 . S
C208 C202 1.379 . S
C208 C205 1.363 . S
C208 N206 1.356 1_455 S
C209 C203 1.363 . S
C209 C204 1.379 . S
C209 N207 1.356 . S
N210 C202 1.356 . S
N210 H216 0.984 . S
N210 H217 0.984 . S
N211 C204 1.356 . S
N211 H214 0.984 . S
N211 H215 0.985 . S
H212 N207 0.984 . S
H213 N207 0.985 . S
H214 N211 0.984 . S
H215 N211 0.985 . S
H216 N210 0.984 . S
H217 N210 0.984 . S
H218 N206 0.984 . S
H219 N206 0.985 . S
C220 C221 1.363 . S
C220 C226 1.379 . S
C220 N228 1.356 . S
C221 C220 1.363 . S
C221 C227 1.363 . S
C222 C223 1.363 . S
C222 C227 1.379 . S
C222 N229 1.356 . S
C223 C222 1.363 . S
C223 C226 1.363 . S
N224 C226 1.356 . S
N224 H236 0.984 . S
N224 H237 0.985 . S
N225 C227 1.356 1_565 S
N225 H230 0.984 . S
N225 H231 0.985 . S
C226 C220 1.379 . S
C226 C223 1.363 . S
C226 N224 1.356 . S
C227 C221 1.363 . S
C227 C222 1.379 . S
C227 N225 1.356 1_545 S
N228 C220 1.356 . S
N228 H234 0.984 . S
N228 H235 0.984 . S
N229 C222 1.356 . S
N229 H232 0.984 . S
N229 H233 0.985 . S
H230 N225 0.984 . S
H231 N225 0.985 . S
H232 N229 0.984 . S
H233 N229 0.985 . S
H234 N228 0.984 . S
H235 N228 0.984 . S
H236 N224 0.984 . S
H237 N224 0.985 . S
C238 C239 1.363 . S
C238 C244 1.379 . S
C238 N246 1.356 . S
C239 C238 1.363 . S
C239 C245 1.363 . S
C240 C241 1.363 . S
C240 C245 1.379 . S
C240 N247 1.356 . S
C241 C240 1.363 . S
C241 C244 1.363 . S
N242 C244 1.356 . S
N242 H254 0.984 . S
N242 H255 0.985 . S
N243 C245 1.356 1_655 S
N243 H248 0.984 . S
N243 H249 0.985 . S
C244 C238 1.379 . S
C244 C241 1.363 . S
C244 N242 1.356 . S
C245 C239 1.363 . S
C245 C240 1.379 . S
C245 N243 1.356 1_455 S
N246 C238 1.356 . S
N246 H252 0.984 . S
N246 H253 0.984 . S
N247 C240 1.356 . S
N247 H250 0.984 . S
N247 H251 0.985 . S
H248 N243 0.984 . S
H249 N243 0.985 . S
H250 N247 0.984 . S
H251 N247 0.985 . S
H252 N246 0.984 . S
H253 N246 0.984 . S
H254 N242 0.984 . S
H255 N242 0.985 . S
C256 C257 1.363 . S
C256 C262 1.379 . S
C256 N264 1.356 . S
C257 C256 1.363 . S
C257 C263 1.363 . S
C258 C259 1.363 . S
C258 C263 1.379 . S
C258 N265 1.356 . S
C259 C258 1.363 . S
C259 C262 1.363 . S
N260 C262 1.356 . S
N260 H272 0.984 . S
N260 H273 0.985 . S
N261 C263 1.356 . S
N261 H266 0.984 . S
N261 H267 0.985 . S
C262 C256 1.379 . S
C262 C259 1.363 . S
C262 N260 1.356 . S
C263 C257 1.363 . S
C263 C258 1.379 . S
C263 N261 1.356 . S
N264 C256 1.356 . S
N264 H270 0.984 . S
N264 H271 0.984 . S
N265 C258 1.356 . S
N265 H268 0.984 . S
N265 H269 0.985 . S
H266 N261 0.984 . S
H267 N261 0.985 . S
H268 N265 0.984 . S
H269 N265 0.985 . S
H270 N264 0.984 . S
H271 N264 0.984 . S
H272 N260 0.984 . S
H273 N260 0.985 . S
C274 C275 1.363 . S
C274 C280 1.379 . S
C274 N282 1.356 . S
C275 C274 1.363 . S
C275 C281 1.363 . S
C276 C277 1.363 . S
C276 C281 1.379 . S
C276 N283 1.356 . S
C277 C276 1.363 . S
C277 C280 1.363 . S
N278 C280 1.356 . S
N278 H290 0.984 . S
N278 H291 0.985 . S
N279 C281 1.356 1_455 S
N279 H284 0.984 . S
N279 H285 0.985 . S
C280 C274 1.379 . S
C280 C277 1.363 . S
C280 N278 1.356 . S
C281 C275 1.363 . S
C281 C276 1.379 . S
C281 N279 1.356 1_655 S
N282 C274 1.356 . S
N282 H288 0.984 . S
N282 H289 0.984 . S
N283 C276 1.356 . S
N283 H286 0.984 . S
N283 H287 0.985 . S
H284 N279 0.984 . S
H285 N279 0.985 . S
H286 N283 0.984 . S
H287 N283 0.985 . S
H288 N282 0.984 . S
H289 N282 0.984 . S
H290 N278 0.984 . S
H291 N278 0.985 . S
C292 C293 1.363 . S
C292 C298 1.379 . S
C292 N300 1.356 . S
C293 C292 1.363 . S
C293 C299 1.363 . S
C294 C295 1.363 . S
C294 C299 1.379 . S
C294 N301 1.356 . S
C295 C294 1.363 . S
C295 C298 1.363 . S
N296 C298 1.356 . S
N296 H308 0.984 . S
N296 H309 0.983 . S
N297 C299 1.356 . S
N297 H302 0.984 1_655 S
N297 H303 0.985 . S
C298 C292 1.379 . S
C298 C295 1.363 . S
C298 N296 1.356 . S
C299 C293 1.363 . S
C299 C294 1.379 . S
C299 N297 1.356 . S
N300 C292 1.356 . S
N300 H306 0.984 . S
N300 H307 0.984 . S
N301 C294 1.356 . S
N301 H304 0.984 . S
N301 H305 0.985 . S
H302 N297 0.984 1_455 S
H303 N297 0.985 . S
H304 N301 0.984 . S
H305 N301 0.985 . S
H306 N300 0.984 . S
H307 N300 0.984 . S
H308 N296 0.984 . S
H309 N296 0.983 . S
C310 C311 1.363 . S
C310 C316 1.379 . S
C310 N318 1.356 . S
C311 C310 1.363 . S
C311 C317 1.363 . S
C312 C313 1.363 . S
C312 C317 1.379 . S
C312 N319 1.356 . S
C313 C312 1.363 . S
C313 C316 1.363 . S
N314 C316 1.356 . S
N314 H326 0.984 . S
N314 H327 0.985 . S
N315 C317 1.356 . S
N315 H320 0.984 . S
N315 H321 0.985 . S
C316 C310 1.379 . S
C316 C313 1.363 . S
C316 N314 1.356 . S
C317 C311 1.363 . S
C317 C312 1.379 . S
C317 N315 1.356 . S
N318 C310 1.356 . S
N318 H324 0.984 . S
N318 H325 0.984 . S
N319 C312 1.356 . S
N319 H322 0.984 . S
N319 H323 0.985 . S
H320 N315 0.984 . S
H321 N315 0.985 . S
H322 N319 0.984 . S
H323 N319 0.985 . S
H324 N318 0.984 . S
H325 N318 0.984 . S
H326 N314 0.984 . S
H327 N314 0.985 . S
C328 C329 1.363 . S
C328 C334 1.379 . S
C328 N336 1.356 . S
C329 C328 1.363 . S
C329 C335 1.363 . S
C330 C331 1.363 . S
C330 C335 1.379 . S
C330 N337 1.356 . S
C331 C330 1.363 . S
C331 C334 1.363 . S
N332 C334 1.356 . S
N332 H344 0.984 . S
N332 H345 0.985 . S
N333 C335 1.356 . S
N333 H338 0.984 . S
N333 H339 0.985 . S
C334 C328 1.379 . S
C334 C331 1.363 . S
C334 N332 1.356 . S
C335 C329 1.363 . S
C335 C330 1.379 . S
C335 N333 1.356 . S
N336 C328 1.356 . S
N336 H342 0.984 . S
N336 H343 0.984 . S
N337 C330 1.356 . S
N337 H340 0.984 . S
N337 H341 0.985 . S
H338 N333 0.984 . S
H339 N333 0.985 . S
H340 N337 0.984 . S
H341 N337 0.985 . S
H342 N336 0.984 . S
H343 N336 0.984 . S
H344 N332 0.984 . S
H345 N332 0.985 . S
C346 C347 1.363 . S
C346 C352 1.379 . S
C346 N354 1.356 . S
C347 C346 1.363 . S
C347 C353 1.363 . S
C348 C349 1.363 . S
C348 C353 1.379 . S
C348 N355 1.356 . S
C349 C348 1.363 . S
C349 C352 1.363 . S
N350 C352 1.356 . S
N350 H362 0.984 . S
N350 H363 0.985 . S
N351 C353 1.356 . S
N351 H356 0.984 . S
N351 H357 0.985 . S
C352 C346 1.379 . S
C352 C349 1.363 . S
C352 N350 1.356 . S
C353 C347 1.363 . S
C353 C348 1.379 . S
C353 N351 1.356 . S
N354 C346 1.356 . S
N354 H360 0.984 . S
N354 H361 0.984 . S
N355 C348 1.356 . S
N355 H358 0.984 . S
N355 H359 0.985 . S
H356 N351 0.984 . S
H357 N351 0.985 . S
H358 N355 0.984 . S
H359 N355 0.985 . S
H360 N354 0.984 . S
H361 N354 0.984 . S
H362 N350 0.984 . S
H363 N350 0.985 . S
C364 C365 1.363 . S
C364 C370 1.379 . S
C364 N372 1.356 . S
C365 C364 1.363 . S
C365 C371 1.363 . S
C366 C367 1.363 . S
C366 C371 1.379 . S
C366 N373 1.356 . S
C367 C366 1.363 . S
C367 C370 1.363 . S
N368 C370 1.356 . S
N368 H380 0.984 . S
N368 H381 0.985 . S
N369 C371 1.356 . S
N369 H374 0.984 . S
N369 H375 0.985 . S
C370 C364 1.379 . S
C370 C367 1.363 . S
C370 N368 1.356 . S
C371 C365 1.363 . S
C371 C366 1.379 . S
C371 N369 1.356 . S
N372 C364 1.356 . S
N372 H378 0.984 . S
N372 H379 0.984 . S
N373 C366 1.356 . S
N373 H376 0.984 . S
N373 H377 0.985 . S
H374 N369 0.984 . S
H375 N369 0.985 . S
H376 N373 0.984 . S
H377 N373 0.985 . S
H378 N372 0.984 . S
H379 N372 0.984 . S
H380 N368 0.984 . S
H381 N368 0.985 . S
C382 C383 1.363 . S
C382 C388 1.379 . S
C382 N390 1.356 . S
C383 C382 1.363 . S
C383 C389 1.363 . S
C384 C385 1.363 . S
C384 C389 1.379 . S
C384 N391 1.356 . S
C385 C384 1.363 . S
C385 C388 1.363 . S
N386 C388 1.356 . S
N386 H398 0.984 . S
N386 H399 0.985 . S
N387 C389 1.356 . S
N387 H392 0.984 . S
N387 H393 0.985 . S
C388 C382 1.379 . S
C388 C385 1.363 . S
C388 N386 1.356 . S
C389 C383 1.363 . S
C389 C384 1.379 . S
C389 N387 1.356 . S
N390 C382 1.356 . S
N390 H396 0.984 . S
N390 H397 0.984 . S
N391 C384 1.356 . S
N391 H394 0.984 . S
N391 H395 0.985 . S
H392 N387 0.984 . S
H393 N387 0.985 . S
H394 N391 0.984 . S
H395 N391 0.985 . S
H396 N390 0.984 . S
H397 N390 0.984 . S
H398 N386 0.984 . S
H399 N386 0.985 . S
C113 C9 1.568 . S
C115 C65 1.568 . S
C131 C23 1.568 . S
C133 C79 1.568 . S
C149 C93 1.568 . S
C151 C37 1.568 . S
C167 C107 1.568 . S
C169 C51 1.568 . S
C185 C11 1.385 . S
C187 C39 1.385 . S
C203 C25 1.384 . S
C205 C53 1.384 . S
C221 C95 1.384 . S
C223 C67 1.384 . S
C239 C81 1.385 . S
C241 C109 1.385 . S
C257 C75 1.526 . S
C259 C5 1.526 . S
C275 C19 1.526 . S
C277 C89 1.526 . S
C293 C103 1.526 . S
C295 C33 1.526 . S
C311 C47 1.526 . S
C313 C61 1.526 . S
C329 C84 1.255 . S
C331 C42 1.255 . S
C347 C0 1.255 . S
C349 C98 1.255 . S
C365 C14 1.255 . S
C367 C56 1.255 . S
C383 C70 1.255 . S
C385 C28 1.255 . S
