# Generated by pormake.
# Topology dft, (4)-cn, num edge types: 1
# Building blocks:
#     Node 0, Type 0, BuildingBlock: KUFVIS_clean_sbu_0, # of connection points: 4
#     Node 1, Type 0, BuildingBlock: KUFVIS_clean_sbu_0, # of connection points: 4
#     Node 2, Type 0, BuildingBlock: KUFVIS_clean_sbu_0, # of connection points: 4
#     Node 3, Type 0, BuildingBlock: KUFVIS_clean_sbu_0, # of connection points: 4
#     Node 4, Type 0, BuildingBlock: KUFVIS_clean_sbu_0, # of connection points: 4
#     Node 5, Type 0, BuildingBlock: KUFVIS_clean_sbu_0, # of connection points: 4
#     Node 6, Type 0, BuildingBlock: KUFVIS_clean_sbu_0, # of connection points: 4
#     Node 7, Type 0, BuildingBlock: KUFVIS_clean_sbu_0, # of connection points: 4
#     Edge 8, Type (0, 0), None
#     Edge 9, Type (0, 0), None
#     Edge 10, Type (0, 0), None
#     Edge 11, Type (0, 0), None
#     Edge 12, Type (0, 0), None
#     Edge 13, Type (0, 0), None
#     Edge 14, Type (0, 0), None
#     Edge 15, Type (0, 0), None
#     Edge 16, Type (0, 0), None
#     Edge 17, Type (0, 0), None
#     Edge 18, Type (0, 0), None
#     Edge 19, Type (0, 0), None
#     Edge 20, Type (0, 0), None
#     Edge 21, Type (0, 0), None
#     Edge 22, Type (0, 0), None
#     Edge 23, Type (0, 0), None
# Relax obj value: 0.174
# Max RMSD: 0.154
# Mean RMSD: 0.154
data_MOF--net-dft--node1-KUFVIS_clean_sbu_0--edge1-none
_symmetry_space_group_name_H-M    P1
_symmetry_Int_Tables_number       1
_symmetry_cell_setting            triclinic
loop_
_symmetry_equiv_pos_as_xyz
'x, y, z'
_cell_length_a     15.086392
_cell_length_b     15.086405
_cell_length_c     19.210229
_cell_angle_alpha  90.001319
_cell_angle_beta   89.998683
_cell_angle_gamma 89.999991
loop_
_atom_site_label
_atom_site_type_symbol
_atom_site_fract_x
_atom_site_fract_y
_atom_site_fract_z
_atom_type_partial_charge
Mn0 Mn 0.34811 0.11151 0.15885 0.0
Mn1 Mn 0.43957 0.2813 0.08226 0.0
C2 C 0.32506 0.25508 0.20743 0.0
C3 C 0.24217 0.01684 0.20099 0.0
C4 C 0.55387 0.12601 0.14343 0.0
O5 O 0.34698 0.07345 0.05482 0.0
O6 O 0.42664 0.18824 0.01219 0.0
C7 C 0.28456 0.31759 -0.00433 0.0
N8 N 0.35206 0.35073 0.035 0.0
C9 C 0.291 0.49718 0.02904 0.0
C10 C 0.21998 0.46252 -0.00856 0.0
C11 C 0.21866 0.37387 -0.02859 0.0
C12 C 0.3581 0.43886 0.04892 0.0
H13 H 0.27838 0.24802 -0.01494 0.0
C14 C 0.38316 0.11693 0.00421 0.0
O15 O 0.32411 0.99395 0.19618 0.0
O16 O 0.21799 0.09169 0.17345 0.0
N17 N 0.44743 0.38011 0.14166 0.0
C18 C 0.47898 0.37842 0.21809 0.0
C19 C 0.49075 0.5438 0.2661 0.0
C20 C 0.45344 0.61292 0.20192 0.0
C21 C 0.41873 0.57191 0.12429 0.0
C22 C 0.41677 0.46277 0.09948 0.0
H23 H 0.4946 0.31392 0.24111 0.0
O24 O 0.34026 0.18713 0.24757 0.0
O25 O 0.34217 0.23817 0.14191 0.0
O26 O 0.48398 0.08466 0.15954 0.0
O27 O 0.54615 0.20917 0.12548 0.0
C28 C 0.35757 0.62487 0.09019 0.0
C29 C 0.2901 0.58594 0.05126 0.0
H30 H 0.1665 0.5052 -0.02268 0.0
H31 H 0.16579 0.34823 0.93927 0.0
H32 H 0.50848 0.57095 0.31701 0.0
H33 H 0.42786 0.67636 0.21732 0.0
H34 H 0.34992 0.69351 0.10561 0.0
H35 H 0.2315 0.62473 0.04319 0.0
Mn36 Mn 0.08764 0.34814 0.65886 0.0
Mn37 Mn 0.91783 0.43964 0.58229 0.0
C38 C 0.94407 0.3251 0.70745 0.0
C39 C 0.1823 0.24218 0.70099 0.0
C40 C 0.07317 0.55391 0.64343 0.0
O41 O 0.12565 0.347 0.55482 0.0
O42 O 1.01085 0.42665 0.5122 0.0
C43 C 0.88144 0.28463 0.49574 0.0
N44 N 0.84834 0.35215 0.53507 0.0
C45 C 0.70189 0.29107 0.52923 0.0
C46 C 0.73654 0.21997 0.49169 0.0
C47 C 0.82516 0.21868 0.47157 0.0
C48 C 0.76022 0.3582 0.54902 0.0
H49 H 0.95101 0.27845 0.48507 0.0
C50 C 0.08216 0.38316 0.50422 0.0
O51 O 0.2052 0.32412 0.69618 0.0
O52 O 0.10745 0.21801 0.67346 0.0
N53 N 0.81904 0.44754 0.64173 0.0
C54 C 0.82079 0.47906 0.71817 0.0
C55 C 0.65545 0.49079 0.76627 0.0
C56 C 0.58628 0.45352 0.70211 0.0
C57 C 0.62722 0.41887 0.62444 0.0
C58 C 0.73635 0.41691 0.59958 0.0
H59 H 0.88531 0.49465 0.74117 0.0
O60 O 1.01202 0.3403 0.74758 0.0
O61 O 0.96097 0.34222 0.64193 0.0
O62 O 0.11451 0.48401 0.65954 0.0
O63 O 0.99001 0.5462 0.62549 0.0
C64 C 0.57423 0.3577 0.59037 0.0
C65 C 0.61315 0.29019 0.55148 0.0
H66 H 0.69387 0.16643 0.4777 0.0
H67 H 0.85077 0.1658 0.43943 0.0
H68 H 0.62833 0.50849 0.8172 0.0
H69 H 0.52287 0.42791 0.71757 0.0
H70 H 0.5056 0.35006 0.60582 0.0
H71 H 0.57435 0.23158 0.54347 0.0
Mn72 Mn 0.85103 0.08762 0.15885 0.0
Mn73 Mn 0.75957 0.91783 0.08226 0.0
C74 C 0.87407 0.94405 0.20743 0.0
C75 C 0.95697 0.18229 0.20099 0.0
C76 C 0.64527 0.07312 0.14343 0.0
O77 O 0.85218 0.12565 0.05482 0.0
O78 O 0.77249 1.01087 0.01219 0.0
C79 C 0.9146 0.88155 -0.0043 0.0
N80 N 0.84709 0.8484 0.03501 0.0
C81 C 0.90825 0.70199 0.02915 0.0
C82 C 0.97933 0.7367 -0.00838 0.0
C83 C 0.98058 0.82531 -0.02848 0.0
C84 C 0.84108 0.76028 0.04894 0.0
H85 H 0.92075 0.95112 -0.01495 0.0
C86 C 0.816 0.08216 0.00421 0.0
O87 O 0.87503 0.20518 0.19618 0.0
O88 O 0.98115 0.10743 0.17345 0.0
N89 N 0.75172 0.81902 0.14166 0.0
C90 C 0.72015 0.82072 0.21809 0.0
C91 C 0.70839 0.65534 0.2661 0.0
C92 C 0.7457 0.58621 0.20192 0.0
C93 C 0.78042 0.62722 0.12429 0.0
C94 C 0.78238 0.73636 0.09948 0.0
H95 H 0.70454 0.88522 0.2411 0.0
O96 O 0.85887 1.012 0.24757 0.0
O97 O 0.85697 0.96096 0.14191 0.0
O98 O 0.71516 0.11447 0.15953 0.0
O99 O 0.65299 0.98996 0.12549 0.0
C100 C 0.84165 0.57428 0.09023 0.0
C101 C 0.90917 0.61325 0.05138 0.0
H102 H 0.03292 0.69408 -0.02237 0.0
H103 H 0.03346 0.85097 0.9394 0.0
H104 H 0.69065 0.62819 0.31701 0.0
H105 H 0.77129 0.52278 0.21733 0.0
H106 H 0.84931 0.50564 0.10567 0.0
H107 H 0.96781 0.57449 0.04338 0.0
Mn108 Mn 0.11152 0.85106 0.65884 0.0
Mn109 Mn 0.2813 0.75963 0.58222 0.0
C110 C 0.2551 0.87411 0.7074 0.0
C111 C 0.01686 0.95698 0.70099 0.0
C112 C 0.12606 0.6453 0.64342 0.0
O113 O 0.07346 0.85219 0.55482 0.0
O114 O 0.18823 0.77251 0.51218 0.0
C115 C 0.31748 0.91466 0.49563 0.0
N116 N 0.35067 0.84718 0.53494 0.0
C117 C 0.49708 0.90832 0.52896 0.0
C118 C 0.46237 0.97933 0.49137 0.0
C119 C 0.37371 0.9806 0.47136 0.0
C120 C 0.4388 0.84119 0.54884 0.0
H121 H 0.2479 0.92083 0.48504 0.0
C122 C 0.11693 0.816 0.50421 0.0
O123 O 0.99397 0.87505 0.69619 0.0
O124 O 0.0917 0.98117 0.67344 0.0
N125 N 0.38014 0.75183 0.64159 0.0
C126 C 0.37849 0.72023 0.718 0.0
C127 C 0.54391 0.70843 0.76593 0.0
C128 C 0.61299 0.74579 0.70173 0.0
C129 C 0.57192 0.78056 0.62414 0.0
C130 C 0.46276 0.78252 0.59939 0.0
H131 H 0.31401 0.70458 0.74104 0.0
O132 O 0.18716 0.85891 0.74755 0.0
O133 O 0.23817 0.85702 0.64189 0.0
O134 O 0.0847 0.71519 0.65953 0.0
O135 O 0.20922 0.65303 0.62547 0.0
C136 C 0.62483 0.84177 0.59005 0.0
C137 C 0.58584 0.90926 0.55117 0.0
H138 H 0.505 0.03284 0.47725 0.0
H139 H 0.34803 0.03347 0.43924 0.0
H140 H 0.57109 0.69066 0.81683 0.0
H141 H 0.67645 0.77134 0.71708 0.0
H142 H 0.69347 0.84945 0.60545 0.0
H143 H 0.62459 0.96788 0.5431 0.0
Mn144 Mn 0.34814 0.0876 0.77833 0.0
Mn145 Mn 0.43968 0.91777 0.85485 0.0
C146 C 0.32504 0.94411 0.72975 0.0
C147 C 0.24219 0.1823 0.73623 0.0
C148 C 0.55391 0.07317 0.79373 0.0
O149 O 0.34704 0.12558 0.88238 0.0
O150 O 0.42664 1.01073 0.92499 0.0
C151 C 0.28467 0.88121 0.94136 0.0
N152 N 0.35224 0.84819 0.90205 0.0
C153 C 0.29131 0.70167 0.90782 0.0
C154 C 0.22013 0.73625 0.9453 0.0
C155 C 0.21874 0.82485 0.96546 0.0
C156 C 0.35839 0.76008 0.88806 0.0
H157 H 0.27844 0.95077 0.95205 0.0
C158 C 0.38315 0.08204 0.93298 0.0
O159 O 0.32412 0.20518 0.74103 0.0
O160 O 0.21801 0.10744 0.76376 0.0
N161 N 0.44762 0.81906 0.79536 0.0
C162 C 0.47907 0.82091 0.7189 0.0
C163 C 0.49095 0.65562 0.67072 0.0
C164 C 0.45381 0.58636 0.73486 0.0
C165 C 0.41917 0.6272 0.81257 0.0
C166 C 0.41712 0.7363 0.83749 0.0
H167 H 0.49458 0.88547 0.69593 0.0
O168 O 0.34026 1.01203 0.68958 0.0
O169 O 0.34221 0.96093 0.79526 0.0
O170 O 0.48401 0.11448 0.7776 0.0
O171 O 0.54622 0.99001 0.81169 0.0
C172 C 0.3581 0.57412 0.84665 0.0
C173 C 0.29055 0.61293 0.88557 0.0
H174 H 0.16657 0.69353 0.95918 0.0
H175 H 0.16581 0.8504 -0.00243 0.0
H176 H 0.50863 0.62857 0.61977 0.0
H177 H 0.4282 0.52297 0.71937 0.0
H178 H 0.35053 0.50549 0.83118 0.0
H179 H 0.23201 0.57404 0.8936 0.0
Mn180 Mn 0.11154 0.34811 0.27834 0.0
Mn181 Mn 0.28135 0.43961 0.35489 0.0
C182 C 0.25504 0.325 0.22977 0.0
C183 C 0.01685 0.24217 0.23623 0.0
C184 C 0.12601 0.55388 0.29373 0.0
O185 O 0.07353 0.34702 0.38238 0.0
O186 O 0.18837 0.42662 0.42501 0.0
C187 C 0.31783 0.2846 0.44142 0.0
N188 N 0.35088 0.35215 0.40211 0.0
C189 C 0.4974 0.29124 0.408 0.0
C190 C 0.46281 0.22013 0.44555 0.0
C191 C 0.37418 0.21871 0.46562 0.0
C192 C 0.439 0.35828 0.38816 0.0
H193 H 0.24826 0.27836 0.45207 0.0
C194 C 0.11705 0.38314 0.43299 0.0
O195 O 0.99398 0.32411 0.24103 0.0
O196 O 0.0917 0.21799 0.26377 0.0
N197 N 0.38009 0.4475 0.29543 0.0
C198 C 0.3783 0.479 0.21899 0.0
C199 C 0.54363 0.4909 0.17089 0.0
C200 C 0.61284 0.45372 0.23505 0.0
C201 C 0.57193 0.41904 0.31272 0.0
C202 C 0.46282 0.41697 0.33758 0.0
H203 H 0.31376 0.49453 0.19599 0.0
O204 O 0.18713 0.34022 0.18959 0.0
O205 O 0.2382 0.34216 0.29528 0.0
O206 O 0.08468 0.48398 0.27761 0.0
O207 O 0.20916 0.54617 0.3117 0.0
C208 C 0.62499 0.35796 0.34683 0.0
C209 C 0.58616 0.29046 0.38579 0.0
H210 H 0.50554 0.16664 0.45957 0.0
H211 H 0.34861 0.16579 0.49773 0.0
H212 H 0.57072 0.50861 0.11995 0.0
H213 H 0.67626 0.42815 0.21961 0.0
H214 H 0.69363 0.35039 0.33139 0.0
H215 H 0.62505 0.23193 0.39388 0.0
Mn216 Mn 0.85106 0.11156 0.77834 0.0
Mn217 Mn 0.7596 0.28135 0.85493 0.0
C218 C 0.87418 0.25505 0.72979 0.0
C219 C 0.95699 0.01686 0.73623 0.0
C220 C 0.6453 0.12606 0.79374 0.0
O221 O 0.85215 0.07353 0.88238 0.0
O222 O 0.77253 0.18835 0.92501 0.0
C223 C 0.91463 0.31771 0.94147 0.0
N224 N 0.84709 0.35081 0.90217 0.0
C225 C 0.90808 0.4973 0.90809 0.0
C226 C 0.97918 0.46266 0.94562 0.0
C227 C 0.98055 0.37402 0.96567 0.0
C228 C 0.841 0.43894 0.88824 0.0
H229 H 0.92084 0.24814 0.95209 0.0
C230 C 0.81602 0.11705 0.93299 0.0
O231 O 0.87504 0.99399 0.74102 0.0
O232 O 0.98118 0.09171 0.76378 0.0
N233 N 0.75176 0.38011 0.7955 0.0
C234 C 0.72021 0.37837 0.71907 0.0
C235 C 0.70828 0.54373 0.67105 0.0
C236 C 0.7455 0.6129 0.73524 0.0
C237 C 0.78025 0.57193 0.81287 0.0
C238 C 0.78232 0.4628 0.83768 0.0
H239 H 0.70466 0.31385 0.69606 0.0
O240 O 0.85896 0.18715 0.68961 0.0
O241 O 0.85702 0.2382 0.79531 0.0
O242 O 0.71519 0.08472 0.77762 0.0
O243 O 0.65302 0.20921 0.81171 0.0
C244 C 0.84138 0.62494 0.84697 0.0
C245 C 0.9089 0.58606 0.88588 0.0
H246 H 0.0327 0.50534 0.95964 0.0
H247 H 0.03347 0.3484 -0.00224 0.0
H248 H 0.69053 0.57085 0.62014 0.0
H249 H 0.77106 0.67634 0.71985 0.0
H250 H 0.84898 0.69359 0.83155 0.0
H251 H 0.96746 0.6249 0.89398 0.0
Mn252 Mn 0.08759 0.85103 0.27833 0.0
Mn253 Mn 0.91778 0.75953 0.35489 0.0
C254 C 0.9441 0.87414 0.22977 0.0
C255 C 0.18228 0.95697 0.23623 0.0
C256 C 0.07312 0.64526 0.29373 0.0
O257 O 0.12558 0.85213 0.38238 0.0
O258 O 1.01075 0.77251 0.425 0.0
C259 C 0.88132 0.91455 0.4414 0.0
N260 N 0.84826 0.847 0.4021 0.0
C261 C 0.70178 0.90801 0.4079 0.0
C262 C 0.7364 0.97918 0.44537 0.0
C263 C 0.82501 0.98052 0.46551 0.0
C264 C 0.76014 0.8409 0.38814 0.0
H265 H 0.95089 0.92076 0.45207 0.0
C266 C 0.08205 0.81601 0.43298 0.0
O267 O 0.20516 0.87503 0.24103 0.0
O268 O 0.10743 0.98115 0.26377 0.0
N269 N 0.81904 0.75163 0.29543 0.0
C270 C 0.82084 0.72014 0.21899 0.0
C271 C 0.65552 0.70823 0.17089 0.0
C272 C 0.5863 0.74542 0.23505 0.0
C273 C 0.6272 0.78012 0.31272 0.0
C274 C 0.73632 0.78217 0.33758 0.0
H275 H 0.88538 0.70461 0.196 0.0
O276 O 1.01201 0.85892 0.18959 0.0
O277 O 0.96093 0.85697 0.29528 0.0
O278 O 0.11445 0.71516 0.27761 0.0
O279 O 0.98997 0.65297 0.3117 0.0
C280 C 0.57417 0.84125 0.34678 0.0
C281 C 0.61303 0.90881 0.38566 0.0
H282 H 0.69373 0.03277 0.45925 0.0
H283 H 0.8506 0.03345 0.4976 0.0
H284 H 0.62843 0.69051 0.11995 0.0
H285 H 0.52289 0.771 0.2196 0.0
H286 H 0.50553 0.84883 0.33134 0.0
H287 H 0.57418 0.96738 0.39369 0.0
loop_
_geom_bond_atom_site_label_1
_geom_bond_atom_site_label_2
_geom_bond_distance
_geom_bond_site_symmetry_2
_ccdc_geom_bond_type
Mn0 O5 2.095 . S
Mn0 O15 2.162 1_545 S
Mn0 O16 2.297 . S
Mn0 O24 2.385 . S
Mn0 O25 2.209 . S
Mn0 O26 2.094 . S
Mn1 O6 2.121 . S
Mn1 N8 2.257 . S
Mn1 N17 2.282 . S
Mn1 O25 2.215 . S
Mn1 O27 2.117 . S
C2 O24 1.234 . S
C2 O25 1.283 . S
C3 O15 1.281 . S
C3 O16 1.236 1_565 S
C4 O26 1.240 . S
C4 O27 1.264 . S
O5 Mn0 2.095 . S
O5 C14 1.250 . S
O6 Mn1 2.121 . S
O6 C14 1.258 . S
C7 N8 1.326 . S
C7 C11 1.460 1_554 S
C7 H13 0.929 1_554 S
N8 Mn1 2.257 . S
N8 C7 1.326 . S
N8 C12 1.362 . S
C9 C10 1.258 . S
C9 C12 1.431 . S
C9 C29 1.449 . S
C10 C9 1.258 . S
C10 C11 1.477 1_554 S
C10 H30 0.931 . S
C11 C7 1.460 1_556 S
C11 C10 1.477 1_556 S
C11 H31 0.930 . S
C12 N8 1.362 . S
C12 C9 1.431 . S
C12 C22 1.476 . S
H13 C7 0.929 1_556 S
C14 O5 1.250 . S
C14 O6 1.258 . S
O15 Mn0 2.162 1_565 S
O15 C3 1.281 . S
O16 Mn0 2.297 . S
O16 C3 1.236 1_545 S
N17 Mn1 2.282 . S
N17 C18 1.328 . S
N17 C22 1.318 . S
C18 N17 1.328 . S
C18 C19 1.457 . S
C18 H23 0.929 . S
C19 C18 1.457 . S
C19 C20 1.291 . S
C19 H32 0.931 . S
C20 C19 1.291 . S
C20 C21 1.373 . S
C20 H33 0.929 . S
C21 C20 1.373 . S
C21 C22 1.396 . S
C21 C28 1.403 . S
C22 C12 1.476 . S
C22 N17 1.318 . S
C22 C21 1.396 . S
H23 C18 0.929 . S
O24 Mn0 2.385 . S
O24 C2 1.234 . S
O25 Mn0 2.209 . S
O25 Mn1 2.215 . S
O25 C2 1.283 . S
O26 Mn0 2.094 . S
O26 C4 1.240 . S
O27 Mn1 2.117 . S
O27 C4 1.264 . S
C28 C21 1.403 . S
C28 C29 1.399 . S
C28 H34 0.929 . S
C29 C9 1.449 . S
C29 C28 1.399 . S
C29 H35 0.930 . S
H30 C10 0.931 . S
H31 C11 0.930 . S
H32 C19 0.931 . S
H33 C20 0.929 . S
H34 C28 0.929 . S
H35 C29 0.930 . S
Mn36 O41 2.095 . S
Mn36 O51 2.162 . S
Mn36 O52 2.297 . S
Mn36 O60 2.385 1_455 S
Mn36 O61 2.209 1_455 S
Mn36 O62 2.094 . S
Mn37 O42 2.121 . S
Mn37 N44 2.257 . S
Mn37 N53 2.282 . S
Mn37 O61 2.215 . S
Mn37 O63 2.117 . S
C38 O60 1.234 . S
C38 O61 1.283 . S
C39 O51 1.281 . S
C39 O52 1.236 . S
C40 O62 1.240 . S
C40 O63 1.264 1_455 S
O41 Mn36 2.095 . S
O41 C50 1.250 . S
O42 Mn37 2.121 . S
O42 C50 1.258 1_655 S
C43 N44 1.326 . S
C43 C47 1.460 . S
C43 H49 0.929 . S
N44 Mn37 2.257 . S
N44 C43 1.326 . S
N44 C48 1.362 . S
C45 C46 1.258 . S
C45 C48 1.431 . S
C45 C65 1.449 . S
C46 C45 1.258 . S
C46 C47 1.477 . S
C46 H66 0.931 . S
C47 C43 1.460 . S
C47 C46 1.477 . S
C47 H67 0.930 . S
C48 N44 1.362 . S
C48 C45 1.431 . S
C48 C58 1.476 . S
H49 C43 0.929 . S
C50 O41 1.250 . S
C50 O42 1.258 1_455 S
O51 Mn36 2.162 . S
O51 C39 1.281 . S
O52 Mn36 2.297 . S
O52 C39 1.236 . S
N53 Mn37 2.282 . S
N53 C54 1.328 . S
N53 C58 1.318 . S
C54 N53 1.328 . S
C54 C55 1.457 . S
C54 H59 0.929 . S
C55 C54 1.457 . S
C55 C56 1.291 . S
C55 H68 0.931 . S
C56 C55 1.291 . S
C56 C57 1.373 . S
C56 H69 0.929 . S
C57 C56 1.373 . S
C57 C58 1.396 . S
C57 C64 1.403 . S
C58 C48 1.476 . S
C58 N53 1.318 . S
C58 C57 1.396 . S
H59 C54 0.929 . S
O60 Mn36 2.385 1_655 S
O60 C38 1.234 . S
O61 Mn36 2.209 1_655 S
O61 Mn37 2.215 . S
O61 C38 1.283 . S
O62 Mn36 2.094 . S
O62 C40 1.240 . S
O63 Mn37 2.117 . S
O63 C40 1.264 1_655 S
C64 C57 1.403 . S
C64 C65 1.399 . S
C64 H70 0.929 . S
C65 C45 1.449 . S
C65 C64 1.399 . S
C65 H71 0.930 . S
H66 C46 0.931 . S
H67 C47 0.930 . S
H68 C55 0.931 . S
H69 C56 0.929 . S
H70 C64 0.929 . S
H71 C65 0.930 . S
Mn72 O77 2.095 . S
Mn72 O87 2.162 . S
Mn72 O88 2.297 . S
Mn72 O96 2.385 1_545 S
Mn72 O97 2.209 1_545 S
Mn72 O98 2.094 . S
Mn73 O78 2.121 . S
Mn73 N80 2.257 . S
Mn73 N89 2.282 . S
Mn73 O97 2.215 . S
Mn73 O99 2.117 . S
C74 O96 1.234 . S
C74 O97 1.283 . S
C75 O87 1.281 . S
C75 O88 1.236 . S
C76 O98 1.240 . S
C76 O99 1.264 1_545 S
O77 Mn72 2.095 . S
O77 C86 1.250 . S
O78 Mn73 2.121 . S
O78 C86 1.258 1_565 S
C79 N80 1.326 . S
C79 C83 1.460 1_554 S
C79 H85 0.929 1_554 S
N80 Mn73 2.257 . S
N80 C79 1.326 . S
N80 C84 1.362 . S
C81 C82 1.258 . S
C81 C84 1.431 . S
C81 C101 1.449 . S
C82 C81 1.258 . S
C82 C83 1.477 1_554 S
C82 H102 0.931 . S
C83 C79 1.460 1_556 S
C83 C82 1.477 1_556 S
C83 H103 0.930 . S
C84 N80 1.362 . S
C84 C81 1.431 . S
C84 C94 1.476 . S
H85 C79 0.929 1_556 S
C86 O77 1.250 . S
C86 O78 1.258 1_545 S
O87 Mn72 2.162 . S
O87 C75 1.281 . S
O88 Mn72 2.297 . S
O88 C75 1.236 . S
N89 Mn73 2.282 . S
N89 C90 1.328 . S
N89 C94 1.318 . S
C90 N89 1.328 . S
C90 C91 1.457 . S
C90 H95 0.929 . S
C91 C90 1.457 . S
C91 C92 1.291 . S
C91 H104 0.931 . S
C92 C91 1.291 . S
C92 C93 1.373 . S
C92 H105 0.929 . S
C93 C92 1.373 . S
C93 C94 1.396 . S
C93 C100 1.403 . S
C94 C84 1.476 . S
C94 N89 1.318 . S
C94 C93 1.396 . S
H95 C90 0.929 . S
O96 Mn72 2.385 1_565 S
O96 C74 1.234 . S
O97 Mn72 2.209 1_565 S
O97 Mn73 2.215 . S
O97 C74 1.283 . S
O98 Mn72 2.094 . S
O98 C76 1.240 . S
O99 Mn73 2.117 . S
O99 C76 1.264 1_565 S
C100 C93 1.403 . S
C100 C101 1.399 . S
C100 H106 0.929 . S
C101 C81 1.449 . S
C101 C100 1.399 . S
C101 H107 0.930 . S
H102 C82 0.931 . S
H103 C83 0.930 . S
H104 C91 0.931 . S
H105 C92 0.929 . S
H106 C100 0.929 . S
H107 C101 0.930 . S
Mn108 O113 2.095 . S
Mn108 O123 2.162 1_455 S
Mn108 O124 2.297 . S
Mn108 O132 2.385 . S
Mn108 O133 2.209 . S
Mn108 O134 2.094 . S
Mn109 O114 2.121 . S
Mn109 N116 2.257 . S
Mn109 N125 2.282 . S
Mn109 O133 2.215 . S
Mn109 O135 2.117 . S
C110 O132 1.234 . S
C110 O133 1.283 . S
C111 O123 1.281 . S
C111 O124 1.236 1_655 S
C112 O134 1.240 . S
C112 O135 1.264 . S
O113 Mn108 2.095 . S
O113 C122 1.250 . S
O114 Mn109 2.121 . S
O114 C122 1.258 . S
C115 N116 1.326 . S
C115 C119 1.460 . S
C115 H121 0.929 . S
N116 Mn109 2.257 . S
N116 C115 1.326 . S
N116 C120 1.362 . S
C117 C118 1.258 . S
C117 C120 1.431 . S
C117 C137 1.449 . S
C118 C117 1.258 . S
C118 C119 1.477 . S
C118 H138 0.931 . S
C119 C115 1.460 . S
C119 C118 1.477 . S
C119 H139 0.930 . S
C120 N116 1.362 . S
C120 C117 1.431 . S
C120 C130 1.476 . S
H121 C115 0.929 . S
C122 O113 1.250 . S
C122 O114 1.258 . S
O123 Mn108 2.162 1_655 S
O123 C111 1.281 . S
O124 Mn108 2.297 . S
O124 C111 1.236 1_455 S
N125 Mn109 2.282 . S
N125 C126 1.328 . S
N125 C130 1.318 . S
C126 N125 1.328 . S
C126 C127 1.457 . S
C126 H131 0.929 . S
C127 C126 1.457 . S
C127 C128 1.291 . S
C127 H140 0.931 . S
C128 C127 1.291 . S
C128 C129 1.373 . S
C128 H141 0.929 . S
C129 C128 1.373 . S
C129 C130 1.396 . S
C129 C136 1.403 . S
C130 C120 1.476 . S
C130 N125 1.318 . S
C130 C129 1.396 . S
H131 C126 0.929 . S
O132 Mn108 2.385 . S
O132 C110 1.234 . S
O133 Mn108 2.209 . S
O133 Mn109 2.215 . S
O133 C110 1.283 . S
O134 Mn108 2.094 . S
O134 C112 1.240 . S
O135 Mn109 2.117 . S
O135 C112 1.264 . S
C136 C129 1.403 . S
C136 C137 1.399 . S
C136 H142 0.929 . S
C137 C117 1.449 . S
C137 C136 1.399 . S
C137 H143 0.930 . S
H138 C118 0.931 . S
H139 C119 0.930 . S
H140 C127 0.931 . S
H141 C128 0.929 . S
H142 C136 0.929 . S
H143 C137 0.930 . S
Mn144 O149 2.095 . S
Mn144 O159 2.162 . S
Mn144 O160 2.297 . S
Mn144 O168 2.385 1_545 S
Mn144 O169 2.209 1_545 S
Mn144 O170 2.094 . S
Mn145 O150 2.121 . S
Mn145 N152 2.257 . S
Mn145 N161 2.282 . S
Mn145 O169 2.215 . S
Mn145 O171 2.117 . S
C146 O168 1.234 . S
C146 O169 1.283 . S
C147 O159 1.281 . S
C147 O160 1.236 . S
C148 O170 1.240 . S
C148 O171 1.264 1_545 S
O149 Mn144 2.095 . S
O149 C158 1.250 . S
O150 Mn145 2.121 . S
O150 C158 1.258 1_565 S
C151 N152 1.326 . S
C151 C155 1.460 1_556 S
C151 H157 0.929 1_556 S
N152 Mn145 2.257 . S
N152 C151 1.326 . S
N152 C156 1.362 . S
C153 C154 1.258 . S
C153 C156 1.431 . S
C153 C173 1.449 . S
C154 C153 1.258 . S
C154 C155 1.477 1_556 S
C154 H174 0.931 . S
C155 C151 1.460 1_554 S
C155 C154 1.477 1_554 S
C155 H175 0.930 . S
C156 N152 1.362 . S
C156 C153 1.431 . S
C156 C166 1.476 . S
H157 C151 0.929 1_554 S
C158 O149 1.250 . S
C158 O150 1.258 1_545 S
O159 Mn144 2.162 . S
O159 C147 1.281 . S
O160 Mn144 2.297 . S
O160 C147 1.236 . S
N161 Mn145 2.282 . S
N161 C162 1.328 . S
N161 C166 1.318 . S
C162 N161 1.328 . S
C162 C163 1.457 . S
C162 H167 0.929 . S
C163 C162 1.457 . S
C163 C164 1.291 . S
C163 H176 0.931 . S
C164 C163 1.291 . S
C164 C165 1.373 . S
C164 H177 0.929 . S
C165 C164 1.373 . S
C165 C166 1.396 . S
C165 C172 1.403 . S
C166 C156 1.476 . S
C166 N161 1.318 . S
C166 C165 1.396 . S
H167 C162 0.929 . S
O168 Mn144 2.385 1_565 S
O168 C146 1.234 . S
O169 Mn144 2.209 1_565 S
O169 Mn145 2.215 . S
O169 C146 1.283 . S
O170 Mn144 2.094 . S
O170 C148 1.240 . S
O171 Mn145 2.117 . S
O171 C148 1.264 1_565 S
C172 C165 1.403 . S
C172 C173 1.399 . S
C172 H178 0.929 . S
C173 C153 1.449 . S
C173 C172 1.399 . S
C173 H179 0.930 . S
H174 C154 0.931 . S
H175 C155 0.930 . S
H176 C163 0.931 . S
H177 C164 0.929 . S
H178 C172 0.929 . S
H179 C173 0.930 . S
Mn180 O185 2.095 . S
Mn180 O195 2.162 1_455 S
Mn180 O196 2.297 . S
Mn180 O204 2.385 . S
Mn180 O205 2.209 . S
Mn180 O206 2.094 . S
Mn181 O186 2.121 . S
Mn181 N188 2.257 . S
Mn181 N197 2.282 . S
Mn181 O205 2.215 . S
Mn181 O207 2.117 . S
C182 O204 1.234 . S
C182 O205 1.283 . S
C183 O195 1.281 . S
C183 O196 1.236 1_655 S
C184 O206 1.240 . S
C184 O207 1.264 . S
O185 Mn180 2.095 . S
O185 C194 1.250 . S
O186 Mn181 2.121 . S
O186 C194 1.258 . S
C187 N188 1.326 . S
C187 C191 1.460 . S
C187 H193 0.929 . S
N188 Mn181 2.257 . S
N188 C187 1.326 . S
N188 C192 1.362 . S
C189 C190 1.258 . S
C189 C192 1.431 . S
C189 C209 1.449 . S
C190 C189 1.258 . S
C190 C191 1.477 . S
C190 H210 0.931 . S
C191 C187 1.460 . S
C191 C190 1.477 . S
C191 H211 0.930 . S
C192 N188 1.362 . S
C192 C189 1.431 . S
C192 C202 1.476 . S
H193 C187 0.929 . S
C194 O185 1.250 . S
C194 O186 1.258 . S
O195 Mn180 2.162 1_655 S
O195 C183 1.281 . S
O196 Mn180 2.297 . S
O196 C183 1.236 1_455 S
N197 Mn181 2.282 . S
N197 C198 1.328 . S
N197 C202 1.318 . S
C198 N197 1.328 . S
C198 C199 1.457 . S
C198 H203 0.929 . S
C199 C198 1.457 . S
C199 C200 1.291 . S
C199 H212 0.931 . S
C200 C199 1.291 . S
C200 C201 1.373 . S
C200 H213 0.929 . S
C201 C200 1.373 . S
C201 C202 1.396 . S
C201 C208 1.403 . S
C202 C192 1.476 . S
C202 N197 1.318 . S
C202 C201 1.396 . S
H203 C198 0.929 . S
O204 Mn180 2.385 . S
O204 C182 1.234 . S
O205 Mn180 2.209 . S
O205 Mn181 2.215 . S
O205 C182 1.283 . S
O206 Mn180 2.094 . S
O206 C184 1.240 . S
O207 Mn181 2.117 . S
O207 C184 1.264 . S
C208 C201 1.403 . S
C208 C209 1.399 . S
C208 H214 0.929 . S
C209 C189 1.449 . S
C209 C208 1.399 . S
C209 H215 0.930 . S
H210 C190 0.931 . S
H211 C191 0.930 . S
H212 C199 0.931 . S
H213 C200 0.929 . S
H214 C208 0.929 . S
H215 C209 0.930 . S
Mn216 O221 2.095 . S
Mn216 O231 2.162 1_545 S
Mn216 O232 2.297 . S
Mn216 O240 2.385 . S
Mn216 O241 2.209 . S
Mn216 O242 2.094 . S
Mn217 O222 2.121 . S
Mn217 N224 2.257 . S
Mn217 N233 2.282 . S
Mn217 O241 2.215 . S
Mn217 O243 2.117 . S
C218 O240 1.234 . S
C218 O241 1.283 . S
C219 O231 1.281 . S
C219 O232 1.236 1_565 S
C220 O242 1.240 . S
C220 O243 1.264 . S
O221 Mn216 2.095 . S
O221 C230 1.250 . S
O222 Mn217 2.121 . S
O222 C230 1.258 . S
C223 N224 1.326 . S
C223 C227 1.460 1_556 S
C223 H229 0.929 1_556 S
N224 Mn217 2.257 . S
N224 C223 1.326 . S
N224 C228 1.362 . S
C225 C226 1.258 . S
C225 C228 1.431 . S
C225 C245 1.449 . S
C226 C225 1.258 . S
C226 C227 1.477 1_556 S
C226 H246 0.931 . S
C227 C223 1.460 1_554 S
C227 C226 1.477 1_554 S
C227 H247 0.930 . S
C228 N224 1.362 . S
C228 C225 1.431 . S
C228 C238 1.476 . S
H229 C223 0.929 1_554 S
C230 O221 1.250 . S
C230 O222 1.258 . S
O231 Mn216 2.162 1_565 S
O231 C219 1.281 . S
O232 Mn216 2.297 . S
O232 C219 1.236 1_545 S
N233 Mn217 2.282 . S
N233 C234 1.328 . S
N233 C238 1.318 . S
C234 N233 1.328 . S
C234 C235 1.457 . S
C234 H239 0.929 . S
C235 C234 1.457 . S
C235 C236 1.291 . S
C235 H248 0.931 . S
C236 C235 1.291 . S
C236 C237 1.373 . S
C236 H249 0.929 . S
C237 C236 1.373 . S
C237 C238 1.396 . S
C237 C244 1.403 . S
C238 C228 1.476 . S
C238 N233 1.318 . S
C238 C237 1.396 . S
H239 C234 0.929 . S
O240 Mn216 2.385 . S
O240 C218 1.234 . S
O241 Mn216 2.209 . S
O241 Mn217 2.215 . S
O241 C218 1.283 . S
O242 Mn216 2.094 . S
O242 C220 1.240 . S
O243 Mn217 2.117 . S
O243 C220 1.264 . S
C244 C237 1.403 . S
C244 C245 1.399 . S
C244 H250 0.929 . S
C245 C225 1.449 . S
C245 C244 1.399 . S
C245 H251 0.930 . S
H246 C226 0.931 . S
H247 C227 0.930 . S
H248 C235 0.931 . S
H249 C236 0.929 . S
H250 C244 0.929 . S
H251 C245 0.930 . S
Mn252 O257 2.095 . S
Mn252 O267 2.162 . S
Mn252 O268 2.297 . S
Mn252 O276 2.385 1_455 S
Mn252 O277 2.209 1_455 S
Mn252 O278 2.094 . S
Mn253 O258 2.121 . S
Mn253 N260 2.257 . S
Mn253 N269 2.282 . S
Mn253 O277 2.215 . S
Mn253 O279 2.117 . S
C254 O276 1.234 . S
C254 O277 1.283 . S
C255 O267 1.281 . S
C255 O268 1.236 . S
C256 O278 1.240 . S
C256 O279 1.264 1_455 S
O257 Mn252 2.095 . S
O257 C266 1.250 . S
O258 Mn253 2.121 . S
O258 C266 1.258 1_655 S
C259 N260 1.326 . S
C259 C263 1.460 . S
C259 H265 0.929 . S
N260 Mn253 2.257 . S
N260 C259 1.326 . S
N260 C264 1.362 . S
C261 C262 1.258 . S
C261 C264 1.431 . S
C261 C281 1.449 . S
C262 C261 1.258 . S
C262 C263 1.477 . S
C262 H282 0.931 . S
C263 C259 1.460 . S
C263 C262 1.477 . S
C263 H283 0.930 . S
C264 N260 1.362 . S
C264 C261 1.431 . S
C264 C274 1.476 . S
H265 C259 0.929 . S
C266 O257 1.250 . S
C266 O258 1.258 1_455 S
O267 Mn252 2.162 . S
O267 C255 1.281 . S
O268 Mn252 2.297 . S
O268 C255 1.236 . S
N269 Mn253 2.282 . S
N269 C270 1.328 . S
N269 C274 1.318 . S
C270 N269 1.328 . S
C270 C271 1.457 . S
C270 H275 0.929 . S
C271 C270 1.457 . S
C271 C272 1.291 . S
C271 H284 0.931 . S
C272 C271 1.291 . S
C272 C273 1.373 . S
C272 H285 0.929 . S
C273 C272 1.373 . S
C273 C274 1.396 . S
C273 C280 1.403 . S
C274 C264 1.476 . S
C274 N269 1.318 . S
C274 C273 1.396 . S
H275 C270 0.929 . S
O276 Mn252 2.385 1_655 S
O276 C254 1.234 . S
O277 Mn252 2.209 1_655 S
O277 Mn253 2.215 . S
O277 C254 1.283 . S
O278 Mn252 2.094 . S
O278 C256 1.240 . S
O279 Mn253 2.117 . S
O279 C256 1.264 1_655 S
C280 C273 1.403 . S
C280 C281 1.399 . S
C280 H286 0.929 . S
C281 C261 1.449 . S
C281 C280 1.399 . S
C281 H287 0.930 . S
H282 C262 0.931 . S
H283 C263 0.930 . S
H284 C271 0.931 . S
H285 C272 0.929 . S
H286 C280 0.929 . S
H287 C281 0.930 . S
C14 C158 1.515 1_554 S
C50 C194 1.515 . S
C230 C86 1.515 1_556 S
C266 C122 1.515 . S
C4 C76 2.069 . S
C40 C112 2.069 . S
C220 C148 2.069 . S
C184 C256 2.069 . S
C182 C2 1.693 . S
C38 C218 1.693 . S
C254 C74 1.693 . S
C110 C146 1.693 . S
C219 C111 1.272 . S
C3 C255 1.272 . S
C39 C147 1.272 . S
C183 C75 1.272 . S
