# Generated by pormake.
# Topology dft, (4)-cn, num edge types: 1
# Building blocks:
#     Node 0, Type 0, BuildingBlock: CEKHIL_clean_sbu_0, # of connection points: 4
#     Node 1, Type 0, BuildingBlock: CEKHIL_clean_sbu_0, # of connection points: 4
#     Node 2, Type 0, BuildingBlock: CEKHIL_clean_sbu_0, # of connection points: 4
#     Node 3, Type 0, BuildingBlock: CEKHIL_clean_sbu_0, # of connection points: 4
#     Node 4, Type 0, BuildingBlock: CEKHIL_clean_sbu_0, # of connection points: 4
#     Node 5, Type 0, BuildingBlock: CEKHIL_clean_sbu_0, # of connection points: 4
#     Node 6, Type 0, BuildingBlock: CEKHIL_clean_sbu_0, # of connection points: 4
#     Node 7, Type 0, BuildingBlock: CEKHIL_clean_sbu_0, # of connection points: 4
#     Edge 8, Type (0, 0), BuildingBlock: EZIPEK_clean_linker_0, # of connection points: 2
#     Edge 9, Type (0, 0), BuildingBlock: EZIPEK_clean_linker_0, # of connection points: 2
#     Edge 10, Type (0, 0), BuildingBlock: EZIPEK_clean_linker_0, # of connection points: 2
#     Edge 11, Type (0, 0), BuildingBlock: EZIPEK_clean_linker_0, # of connection points: 2
#     Edge 12, Type (0, 0), BuildingBlock: EZIPEK_clean_linker_0, # of connection points: 2
#     Edge 13, Type (0, 0), BuildingBlock: EZIPEK_clean_linker_0, # of connection points: 2
#     Edge 14, Type (0, 0), BuildingBlock: EZIPEK_clean_linker_0, # of connection points: 2
#     Edge 15, Type (0, 0), BuildingBlock: EZIPEK_clean_linker_0, # of connection points: 2
#     Edge 16, Type (0, 0), BuildingBlock: EZIPEK_clean_linker_0, # of connection points: 2
#     Edge 17, Type (0, 0), BuildingBlock: EZIPEK_clean_linker_0, # of connection points: 2
#     Edge 18, Type (0, 0), BuildingBlock: EZIPEK_clean_linker_0, # of connection points: 2
#     Edge 19, Type (0, 0), BuildingBlock: EZIPEK_clean_linker_0, # of connection points: 2
#     Edge 20, Type (0, 0), BuildingBlock: EZIPEK_clean_linker_0, # of connection points: 2
#     Edge 21, Type (0, 0), BuildingBlock: EZIPEK_clean_linker_0, # of connection points: 2
#     Edge 22, Type (0, 0), BuildingBlock: EZIPEK_clean_linker_0, # of connection points: 2
#     Edge 23, Type (0, 0), BuildingBlock: EZIPEK_clean_linker_0, # of connection points: 2
# Relax obj value: 0.181
# Max RMSD: 0.171
# Mean RMSD: 0.171
data_MOF--net-dft--node1-CEKHIL_clean_sbu_0--edge1-EZIPEK_clean_linker_0
_symmetry_space_group_name_H-M    P1
_symmetry_Int_Tables_number       1
_symmetry_cell_setting            triclinic
loop_
_symmetry_equiv_pos_as_xyz
'x, y, z'
_cell_length_a     24.768947
_cell_length_b     24.78479
_cell_length_c     29.546211
_cell_angle_alpha  90.036247
_cell_angle_beta   90.006765
_cell_angle_gamma 89.866603
loop_
_atom_site_label
_atom_site_type_symbol
_atom_site_fract_x
_atom_site_fract_y
_atom_site_fract_z
_atom_type_partial_charge
Co0 Co 0.35378 0.04655 0.18585 0.0
O1 O 0.42309 0.0129 0.17476 0.0
O2 O 0.41144 0.09343 0.20585 0.0
C3 C 0.31515 0.96992 0.21354 0.0
O4 O 0.28998 0.09471 0.20475 0.0
Co5 Co 0.24666 0.00819 0.14084 0.0
O6 O 0.21051 0.06217 0.17985 0.0
C7 C 0.33488 0.05702 0.08723 0.0
C8 C 0.44447 0.05629 0.19167 0.0
C9 C 0.23796 0.09622 0.2024 0.0
O10 O 0.35622 0.07752 0.12302 0.0
O11 O 0.29495 0.02432 0.08818 0.0
O12 O 0.34353 1.00121 0.23976 0.0
O13 O 0.31166 0.98668 0.17255 0.0
Co14 Co 0.09292 0.35677 0.68979 0.0
O15 O 0.13585 0.42134 0.68211 0.0
O16 O 0.05223 0.4188 0.70896 0.0
C17 C 0.15861 0.30499 0.72041 0.0
O18 O 0.03522 0.30084 0.70513 0.0
Co19 Co 0.11693 0.24781 0.64208 0.0
O20 O 0.05339 0.21961 0.67497 0.0
C21 C 0.08456 0.34335 0.58986 0.0
C22 C 0.09363 0.44733 0.69689 0.0
C23 C 0.02455 0.25049 0.69956 0.0
O24 O 0.06616 0.36589 0.62592 0.0
O25 O 0.11126 0.29914 0.59023 0.0
O26 O 0.13195 0.33871 0.74588 0.0
O27 O 0.1472 0.3061 0.67796 0.0
Co28 Co 0.76828 0.08835 0.18924 0.0
O29 O 0.70119 0.12671 0.17845 0.0
O30 O 0.70761 0.04409 0.20665 0.0
C31 C 0.81301 0.15843 0.22112 0.0
O32 O 0.82847 0.03514 0.20678 0.0
Co33 Co 0.87803 0.12192 0.14559 0.0
O34 O 0.90994 0.0657 0.18502 0.0
C35 C 0.78783 0.08047 0.09018 0.0
C36 C 0.67714 0.08373 0.19345 0.0
C37 C 0.88045 0.03175 0.20581 0.0
O38 O 0.76507 0.06051 0.12547 0.0
O39 O 0.82981 0.11044 0.09192 0.0
O40 O 0.77981 0.12957 0.24523 0.0
O41 O 0.81518 0.14582 0.17896 0.0
Co42 Co 0.04713 0.76818 0.6927 0.0
O43 O 0.01506 0.69816 0.6822 0.0
O44 O 0.09833 0.7122 0.70733 0.0
C45 C 0.97439 0.80413 0.72804 0.0
O46 O 0.09559 0.83195 0.71012 0.0
Co47 Co 1.00226 0.87634 0.65524 0.0
O48 O 0.05944 0.91212 0.69133 0.0
C49 C 0.04957 0.79435 0.59415 0.0
C50 C 0.06105 0.67835 0.69552 0.0
C51 C 0.09629 0.88392 0.70986 0.0
O52 O 0.07152 0.76962 0.62776 0.0
O53 O 0.01679 0.83398 0.59873 0.0
O54 O 0.00854 0.77439 0.75048 0.0
O55 O 0.98435 0.80929 0.68555 0.0
Co56 Co 0.36392 0.08341 0.8014 0.0
O57 O 0.43356 0.11796 0.80816 0.0
O58 O 0.42088 0.03307 0.7869 0.0
C59 C 0.32342 0.15263 0.76511 0.0
O60 O 0.30085 0.03208 0.78827 0.0
Co61 Co 0.25605 0.12725 0.84089 0.0
O62 O 0.2208 0.07002 0.80455 0.0
C63 C 0.34168 0.08457 0.90101 0.0
C64 C 0.45421 0.07174 0.79639 0.0
C65 C 0.24883 0.03201 0.78744 0.0
O66 O 0.36649 0.06287 0.86728 0.0
O67 O 0.30023 0.11507 0.89668 0.0
O68 O 0.3531 0.11866 0.74231 0.0
O69 O 0.32126 0.14501 0.80801 0.0
Co70 Co 0.04251 0.3595 0.30818 0.0
O71 O 0.00846 0.42858 0.31933 0.0
O72 O 0.08852 0.41743 0.28729 0.0
C73 C 0.96571 0.31931 0.28201 0.0
O74 O 0.09079 0.29572 0.28934 0.0
Co75 Co 0.00583 0.25326 0.35555 0.0
O76 O 0.05903 0.21678 0.316 0.0
C77 C 0.0553 0.34297 0.40679 0.0
C78 C 0.05158 0.45026 0.30222 0.0
C79 C 0.09249 0.24378 0.29248 0.0
O80 O 0.07505 0.36321 0.37034 0.0
O81 O 0.02258 0.30306 0.40709 0.0
O82 O 0.996 0.34776 0.25501 0.0
O83 O 0.98335 0.31708 0.32277 0.0
Co84 Co 0.77697 0.04208 0.80686 0.0
O85 O 0.71182 0.99987 0.81458 0.0
O86 O 0.71543 0.08203 0.78521 0.0
C87 C 0.82928 0.97414 0.77924 0.0
O88 O 0.83364 0.0986 0.7903 0.0
Co89 Co 0.88338 0.02169 0.85778 0.0
O90 O 0.91159 0.08731 0.8278 0.0
C91 C 0.78643 0.05367 0.90678 0.0
C92 C 0.68629 0.0414 0.79803 0.0
C93 C 0.88268 0.11212 0.79898 0.0
O94 O 0.76599 0.07193 0.86979 0.0
O95 O 0.83008 0.02626 0.90802 0.0
O96 O 0.79672 1.00057 0.75255 0.0
O97 O 0.82718 0.98776 0.82134 0.0
Co98 Co 0.08618 0.77383 0.30776 0.0
O99 O 0.1236 0.70647 0.31969 0.0
O100 O 0.04075 0.71345 0.29191 0.0
C101 C 0.15696 0.81586 0.27423 0.0
O102 O 0.0338 0.83411 0.28875 0.0
Co103 Co 0.12175 0.88509 0.34753 0.0
O104 O 0.06364 0.91621 0.30972 0.0
C105 C 0.07921 0.79861 0.40637 0.0
C106 C 0.08026 0.68273 0.30498 0.0
C107 C 0.02981 0.88603 0.28955 0.0
O108 O 0.05922 0.77362 0.37204 0.0
O109 O 0.1094 0.84026 0.40288 0.0
O110 O 0.12716 0.78232 0.25133 0.0
O111 O 0.14445 0.82019 0.31631 0.0
C112 C 0.3712 0.02138 0.01523 0.0
C113 C 0.35878 0.06705 0.04221 0.0
C114 C 0.36611 0.12398 0.97537 0.0
C115 C 0.36197 0.07723 0.94777 0.0
N116 N 0.36323 0.97986 0.9415 0.0
N117 N 0.34745 0.16348 0.04869 0.0
C118 C 0.36691 0.02532 0.96747 0.0
C119 C 0.3586 0.11918 0.0228 0.0
N120 N 0.38596 0.97418 0.03565 0.0
N121 N 0.37642 0.17281 0.95585 0.0
H122 H 0.34243 0.16166 0.08366 0.0
H123 H 0.34032 0.20161 0.0351 0.0
H124 H 0.38307 0.17678 0.92111 0.0
H125 H 0.38396 0.20774 0.97442 0.0
H126 H 0.39972 0.94057 0.01783 0.0
H127 H 0.38982 0.97099 0.07076 0.0
H128 H 0.35993 0.94126 0.95513 0.0
H129 H 0.36027 0.98054 0.90638 0.0
C130 C 0.02576 0.37678 0.52611 0.0
C131 C 0.07767 0.36914 0.54515 0.0
C132 C 0.11888 0.36727 0.47 0.0
C133 C 0.06643 0.36809 0.4511 0.0
N134 N 0.97417 0.39705 0.45831 0.0
N135 N 0.17344 0.38125 0.53724 0.0
C136 C 0.02132 0.38143 0.47842 0.0
C137 C 0.12425 0.37325 0.51751 0.0
N138 N 0.98072 0.37525 0.55273 0.0
N139 N 0.16276 0.3566 0.44347 0.0
H140 H 0.17751 0.38613 0.5722 0.0
H141 H 0.20862 0.38843 0.51892 0.0
H142 H 0.1604 0.35295 0.40841 0.0
H143 H 0.2011 0.34897 0.45648 0.0
H144 H 0.94166 0.37371 0.53976 0.0
H145 H 0.98229 0.37324 0.58789 0.0
H146 H 0.94086 0.41122 0.47628 0.0
H147 H 0.97079 0.40091 0.42321 0.0
C148 C 0.75774 0.11461 0.97022 0.0
C149 C 0.75961 0.06251 0.95078 0.0
C150 C 0.75862 0.02051 0.02559 0.0
C151 C 0.7635 0.07257 0.04496 0.0
N152 N 0.74441 0.1675 0.03849 0.0
N153 N 0.73867 0.96844 0.95794 0.0
C154 C 0.75469 0.11913 0.01801 0.0
C155 C 0.75134 0.01635 0.97809 0.0
N156 N 0.76308 0.1593 0.94362 0.0
N157 N 0.76535 0.97538 0.05152 0.0
H158 H 0.73351 0.96531 0.92294 0.0
H159 H 0.72819 0.93389 0.97593 0.0
H160 H 0.77042 0.97664 0.08648 0.0
H161 H 0.76865 0.93669 0.03803 0.0
H162 H 0.76903 0.19794 0.95654 0.0
H163 H 0.76354 0.15743 0.9084 0.0
H164 H 0.73369 0.20224 0.02079 0.0
H165 H 0.74129 0.17113 0.07361 0.0
C166 C 0.01873 0.77307 0.4718 0.0
C167 C 0.071 0.77769 0.45277 0.0
C168 C 0.11192 0.77692 0.52821 0.0
C169 C 0.05949 0.77581 0.54728 0.0
N170 N 0.96611 0.7512 0.53851 0.0
N171 N 0.16643 0.76175 0.46125 0.0
C172 C 0.01393 0.76625 0.51931 0.0
C173 C 0.11733 0.77174 0.48062 0.0
N174 N 0.9738 0.77912 0.44545 0.0
N175 N 0.15602 0.78688 0.55468 0.0
H176 H 0.17099 0.75677 0.42635 0.0
H177 H 0.20098 0.75275 0.47991 0.0
H178 H 0.15403 0.79093 0.58972 0.0
H179 H 0.19422 0.7946 0.54147 0.0
H180 H 0.93498 0.78252 0.45871 0.0
H181 H 0.97533 0.78413 0.41049 0.0
H182 H 0.9326 0.7393 0.5197 0.0
H183 H 0.96213 0.74513 0.57333 0.0
C184 C 0.53115 0.0747 0.23375 0.0
C185 C 0.50399 0.06433 0.19228 0.0
C186 C 0.59082 0.06425 0.1521 0.0
C187 C 0.61744 0.07856 0.1929 0.0
N188 N 0.61291 0.10544 0.27112 0.0
N189 N 0.5066 0.05985 0.11064 0.0
C190 C 0.58754 0.0862 0.23334 0.0
C191 C 0.53346 0.06188 0.15106 0.0
N192 N 0.50362 0.07108 0.27374 0.0
N193 N 0.62041 0.0515 0.11451 0.0
H194 H 0.46464 0.05922 0.10813 0.0
H195 H 0.52556 0.06394 0.07938 0.0
H196 H 0.66235 0.05415 0.11346 0.0
H197 H 0.60384 0.03429 0.08552 0.0
H198 H 0.52217 0.07255 0.30533 0.0
H199 H 0.46261 0.06188 0.27551 0.0
H200 H 0.59251 0.11759 0.30021 0.0
H201 H 0.65425 0.1134 0.27213 0.0
C202 C 0.09629 0.53649 0.65616 0.0
C203 C 0.09048 0.50712 0.6972 0.0
C204 C 0.06221 0.58987 0.73645 0.0
C205 C 0.07133 0.61956 0.6962 0.0
N206 N 0.10623 0.62378 0.62013 0.0
N207 N 0.07809 0.50703 0.77813 0.0
C208 C 0.09133 0.59366 0.65681 0.0
C209 C 0.07627 0.53419 0.73788 0.0
N210 N 0.10328 0.50975 0.61607 0.0
N211 N 0.03903 0.61466 0.77298 0.0
H212 H 0.08949 0.46658 0.78053 0.0
H213 H 0.07332 0.5256 0.80949 0.0
H214 H 0.02939 0.65567 0.77345 0.0
H215 H 0.02566 0.59398 0.8015 0.0
H216 H 0.10123 0.52856 0.58461 0.0
H217 H 0.10657 0.46797 0.61362 0.0
H218 H 0.12694 0.60792 0.59246 0.0
H219 H 0.10178 0.66559 0.61883 0.0
C220 C 0.59986 0.05952 0.756 0.0
C221 C 0.62632 0.0448 0.79687 0.0
C222 C 0.5387 0.04161 0.8357 0.0
C223 C 0.51331 0.06228 0.79631 0.0
N224 N 0.51969 0.09677 0.72034 0.0
N225 N 0.62177 0.03157 0.87792 0.0
C226 C 0.54392 0.07298 0.75682 0.0
C227 C 0.59598 0.03801 0.83733 0.0
N228 N 0.62777 0.05854 0.71608 0.0
N229 N 0.5081 0.02491 0.87154 0.0
H230 H 0.66358 0.0302 0.88125 0.0
H231 H 0.60193 0.03272 0.90899 0.0
H232 H 0.46616 0.02819 0.87221 0.0
H233 H 0.52386 0.0037 0.89897 0.0
H234 H 0.60967 0.06373 0.68457 0.0
H235 H 0.6683 0.04729 0.71401 0.0
H236 H 0.54093 0.11119 0.69246 0.0
H237 H 0.47853 0.10579 0.71936 0.0
C238 C 0.0717 0.53787 0.26209 0.0
C239 C 0.0599 0.50979 0.30282 0.0
C240 C 0.05928 0.59572 0.34451 0.0
C241 C 0.075 0.6231 0.30453 0.0
N242 N 0.1045 0.62009 0.22693 0.0
N243 N 0.05358 0.51069 0.38447 0.0
C244 C 0.08375 0.59407 0.26379 0.0
C245 C 0.05658 0.53837 0.34452 0.0
N246 N 0.06884 0.51145 0.22152 0.0
N247 N 0.0457 0.62458 0.38231 0.0
H248 H 0.05305 0.46874 0.38633 0.0
H249 H 0.05691 0.52898 0.41608 0.0
H250 H 0.04868 0.66648 0.38411 0.0
H251 H 0.02756 0.60748 0.41066 0.0
H252 H 0.07143 0.5308 0.19034 0.0
H253 H 0.05907 0.47068 0.21876 0.0
H254 H 0.11746 0.60023 0.19781 0.0
H255 H 0.11292 0.66133 0.22681 0.0
C256 C 0.13796 0.21073 0.22107 0.0
C257 C 0.13615 0.21314 0.26906 0.0
C258 C 0.2055 0.14212 0.27372 0.0
C259 C 0.20784 0.14025 0.22575 0.0
N260 N 0.18701 0.18177 0.15414 0.0
N261 N 0.17749 0.19167 0.34065 0.0
C262 C 0.1774 0.17751 0.19956 0.0
C263 C 0.17296 0.18209 0.29524 0.0
N264 N 0.10024 0.23783 0.19604 0.0
N265 N 0.23212 0.10404 0.29873 0.0
H266 H 0.15484 0.2212 0.35728 0.0
H267 H 0.20718 0.17425 0.36092 0.0
H268 H 0.25665 0.0744 0.28434 0.0
H269 H 0.22685 0.09933 0.33347 0.0
H270 H 0.09549 0.23262 0.16129 0.0
H271 H 0.07087 0.26272 0.2104 0.0
H272 H 0.17015 0.21176 0.13388 0.0
H273 H 0.21603 0.15847 0.13751 0.0
C274 C 0.97654 0.22785 0.77293 0.0
C275 C 0.97902 0.22551 0.72481 0.0
C276 C 0.91184 0.15309 0.72453 0.0
C277 C 0.9087 0.15597 0.77255 0.0
N278 N 0.92496 0.20713 0.84046 0.0
N279 N 0.93615 0.1991 0.65514 0.0
C280 C 0.93671 0.19718 0.79604 0.0
C281 C 0.94218 0.19254 0.70077 0.0
N282 N 0.01417 0.2561 0.79702 0.0
N283 N 0.88955 0.11071 0.70161 0.0
H284 H 0.95715 0.22849 0.63702 0.0
H285 H 0.90627 0.17966 0.63645 0.0
H286 H 0.86869 0.07947 0.71727 0.0
H287 H 0.89608 0.1039 0.66724 0.0
H288 H 0.01797 0.25328 0.83206 0.0
H289 H 0.04451 0.27905 0.78224 0.0
H290 H 0.94044 0.23994 0.85825 0.0
H291 H 0.89523 0.1859 0.85799 0.0
C292 C 0.98207 0.91865 0.21941 0.0
C293 C 0.98317 0.91286 0.26714 0.0
C294 C 0.90728 0.97639 0.27442 0.0
C295 C 0.90833 0.98457 0.22682 0.0
N296 N 0.93415 0.95173 0.15326 0.0
N297 N 0.93876 0.92398 0.3389 0.0
C298 C 0.94183 0.95181 0.19909 0.0
C299 C 0.94302 0.93788 0.29427 0.0
N300 N 0.02101 0.89441 0.19371 0.0
N301 N 0.87394 0.00703 0.30084 0.0
H302 H 0.96419 0.8956 0.35406 0.0
H303 H 0.90747 0.93665 0.3599 0.0
H304 H 0.84461 0.03252 0.28744 0.0
H305 H 0.87636 0.00864 0.33598 0.0
H306 H 0.02694 0.90242 0.15949 0.0
H307 H 0.04938 0.86799 0.20738 0.0
H308 H 0.95372 0.92534 0.13126 0.0
H309 H 0.90401 0.9746 0.13764 0.0
C310 C 0.14249 0.92257 0.77847 0.0
C311 C 0.14255 0.9127 0.7312 0.0
C312 C 0.22291 0.96995 0.72239 0.0
C313 C 0.21916 0.98434 0.76897 0.0
N314 N 0.18711 0.96268 0.84359 0.0
N315 N 0.18883 0.91551 0.65979 0.0
C316 C 0.18233 0.95702 0.7977 0.0
C317 C 0.18481 0.9329 0.70363 0.0
N318 N 0.10348 0.89962 0.80471 0.0
N319 N 0.26195 0.99267 0.69594 0.0
H320 H 0.16164 0.88827 0.64551 0.0
H321 H 0.22063 0.92477 0.63822 0.0
H322 H 0.2938 0.01497 0.70916 0.0
H323 H 0.26307 0.99007 0.66084 0.0
H324 H 0.09588 0.91014 0.8382 0.0
H325 H 0.07766 0.87014 0.79215 0.0
H326 H 0.16464 0.94103 0.86708 0.0
H327 H 0.21733 0.98594 0.85855 0.0
C328 C 0.91616 0.92299 0.78433 0.0
C329 C 0.8643 0.92815 0.76454 0.0
C330 C 0.88015 0.8421 0.72548 0.0
C331 C 0.93019 0.83642 0.74879 0.0
N332 N 0.97979 0.86035 0.81608 0.0
N333 N 0.79146 0.88391 0.72449 0.0
C334 C 0.94276 0.87282 0.78369 0.0
C335 C 0.84442 0.88521 0.73729 0.0
N336 N 0.94266 0.9672 0.79979 0.0
N337 N 0.86665 0.80606 0.69243 0.0
H338 H 0.76352 0.91334 0.73377 0.0
H339 H 0.77404 0.85096 0.70823 0.0
H340 H 0.88917 0.77115 0.68632 0.0
H341 H 0.8343 0.81181 0.6704 0.0
H342 H 0.982 0.96566 0.81242 0.0
H343 H 0.92855 0.00544 0.79178 0.0
H344 H 0.9875 0.88594 0.8434 0.0
H345 H 0.99723 0.82221 0.81871 0.0
C346 C 0.28402 0.90143 0.2738 0.0
C347 C 0.2854 0.92 0.22828 0.0
C348 C 0.20753 0.86319 0.20991 0.0
C349 C 0.20429 0.84606 0.25569 0.0
N350 N 0.25645 0.82905 0.32349 0.0
N351 N 0.27009 0.88874 0.15157 0.0
C352 C 0.2475 0.85941 0.28557 0.0
C353 C 0.25388 0.89183 0.19568 0.0
N354 N 0.3183 0.92164 0.30569 0.0
N355 N 0.16685 0.85403 0.17975 0.0
H356 H 0.30826 0.90122 0.14106 0.0
H357 H 0.24966 0.86577 0.12747 0.0
H358 H 0.13174 0.83321 0.18725 0.0
H359 H 0.16653 0.87143 0.1476 0.0
H360 H 0.31214 0.91604 0.34029 0.0
H361 H 0.35338 0.94261 0.29796 0.0
H362 H 0.28981 0.83421 0.34452 0.0
H363 H 0.23501 0.79384 0.33043 0.0
C364 C 0.19189 0.21196 0.73348 0.0
C365 C 0.20119 0.26793 0.73711 0.0
C366 C 0.29629 0.24907 0.75411 0.0
C367 C 0.28731 0.19354 0.74474 0.0
N368 N 0.22967 0.12599 0.71225 0.0
N369 N 0.26406 0.34127 0.74587 0.0
C370 C 0.23613 0.17635 0.7298 0.0
C371 C 0.25405 0.28712 0.74602 0.0
N372 N 0.14077 0.19248 0.737 0.0
N373 N 0.34481 0.26513 0.77137 0.0
H374 H 0.2336 0.36999 0.74172 0.0
H375 H 0.30278 0.35747 0.74743 0.0
H376 H 0.37738 0.23866 0.775 0.0
H377 H 0.35184 0.30381 0.78381 0.0
H378 H 0.13183 0.15139 0.73742 0.0
H379 H 0.10913 0.21765 0.74666 0.0
H380 H 0.19337 0.11259 0.69841 0.0
H381 H 0.2626 0.10074 0.70672 0.0
C382 C 0.89545 0.28837 0.22319 0.0
C383 C 0.91687 0.28726 0.26788 0.0
C384 C 0.86675 0.20437 0.28348 0.0
C385 C 0.84528 0.2046 0.23904 0.0
N386 N 0.82239 0.25989 0.17428 0.0
N387 N 0.89228 0.26256 0.34471 0.0
C388 C 0.85486 0.25032 0.21087 0.0
C389 C 0.89327 0.25101 0.29953 0.0
N390 N 0.91138 0.3267 0.19291 0.0
N391 N 0.86401 0.15973 0.31034 0.0
H392 H 0.9021 0.30055 0.35739 0.0
H393 H 0.87285 0.23792 0.36821 0.0
H394 H 0.84771 0.12333 0.29972 0.0
H395 H 0.88359 0.15755 0.34157 0.0
H396 H 0.90424 0.32332 0.15825 0.0
H397 H 0.93043 0.36232 0.2023 0.0
H398 H 0.82461 0.29482 0.15479 0.0
H399 H 0.78846 0.23669 0.16692 0.0
loop_
_geom_bond_atom_site_label_1
_geom_bond_atom_site_label_2
_geom_bond_distance
_geom_bond_site_symmetry_2
_ccdc_geom_bond_type
Co0 O1 2.216 1_545 S
Co0 O2 2.091 . S
Co0 O4 2.004 . S
Co0 O10 2.021 . S
Co0 O12 2.137 1_545 S
Co0 O13 2.244 1_545 S
O1 Co0 2.216 1_565 S
O1 C8 1.247 1_565 S
O2 Co0 2.091 . S
O2 C8 1.261 . S
C3 O12 1.247 . S
C3 O13 1.272 . S
O4 Co0 2.004 . S
O4 C9 1.259 . S
Co5 O6 2.061 . S
Co5 O11 2.052 . S
Co5 O13 2.135 1_545 S
O6 Co5 2.061 . S
O6 C9 1.235 . S
C7 O10 1.238 . S
C7 O11 1.241 . S
C8 O1 1.247 1_545 S
C8 O2 1.261 . S
C9 O4 1.259 . S
C9 O6 1.235 . S
O10 Co0 2.021 . S
O10 C7 1.238 . S
O11 Co5 2.052 . S
O11 C7 1.241 . S
O12 Co0 2.137 1_565 S
O12 C3 1.247 . S
O13 Co0 2.244 1_565 S
O13 C3 1.272 . S
O13 Co5 2.135 1_565 S
Co14 O15 2.216 . S
Co14 O16 2.091 . S
Co14 O18 2.004 . S
Co14 O24 2.021 . S
Co14 O26 2.137 . S
Co14 O27 2.244 . S
O15 Co14 2.216 . S
O15 C22 1.247 . S
O16 Co14 2.091 . S
O16 C22 1.261 . S
C17 O26 1.247 . S
C17 O27 1.272 . S
O18 Co14 2.004 . S
O18 C23 1.259 . S
Co19 O20 2.061 . S
Co19 O25 2.052 . S
Co19 O27 2.135 . S
O20 Co19 2.061 . S
O20 C23 1.235 . S
C21 O24 1.238 . S
C21 O25 1.241 . S
C22 O15 1.247 . S
C22 O16 1.261 . S
C23 O18 1.259 . S
C23 O20 1.235 . S
O24 Co14 2.021 . S
O24 C21 1.238 . S
O25 Co19 2.052 . S
O25 C21 1.241 . S
O26 Co14 2.137 . S
O26 C17 1.247 . S
O27 Co14 2.244 . S
O27 C17 1.272 . S
O27 Co19 2.135 . S
Co28 O29 2.216 . S
Co28 O30 2.091 . S
Co28 O32 2.004 . S
Co28 O38 2.021 . S
Co28 O40 2.137 . S
Co28 O41 2.244 . S
O29 Co28 2.216 . S
O29 C36 1.247 . S
O30 Co28 2.091 . S
O30 C36 1.261 . S
C31 O40 1.247 . S
C31 O41 1.272 . S
O32 Co28 2.004 . S
O32 C37 1.259 . S
Co33 O34 2.061 . S
Co33 O39 2.052 . S
Co33 O41 2.135 . S
O34 Co33 2.061 . S
O34 C37 1.235 . S
C35 O38 1.238 . S
C35 O39 1.241 . S
C36 O29 1.247 . S
C36 O30 1.261 . S
C37 O32 1.259 . S
C37 O34 1.235 . S
O38 Co28 2.021 . S
O38 C35 1.238 . S
O39 Co33 2.052 . S
O39 C35 1.241 . S
O40 Co28 2.137 . S
O40 C31 1.247 . S
O41 Co28 2.244 . S
O41 C31 1.272 . S
O41 Co33 2.135 . S
Co42 O43 2.216 1_455 S
Co42 O44 2.091 . S
Co42 O46 2.004 . S
Co42 O52 2.021 . S
Co42 O54 2.137 1_455 S
Co42 O55 2.244 1_455 S
O43 Co42 2.216 1_655 S
O43 C50 1.247 1_655 S
O44 Co42 2.091 . S
O44 C50 1.261 . S
C45 O54 1.247 . S
C45 O55 1.272 . S
O46 Co42 2.004 . S
O46 C51 1.259 . S
Co47 O48 2.061 . S
Co47 O53 2.052 . S
Co47 O55 2.135 1_455 S
O48 Co47 2.061 . S
O48 C51 1.235 . S
C49 O52 1.238 . S
C49 O53 1.241 . S
C50 O43 1.247 1_455 S
C50 O44 1.261 . S
C51 O46 1.259 . S
C51 O48 1.235 . S
O52 Co42 2.021 . S
O52 C49 1.238 . S
O53 Co47 2.052 . S
O53 C49 1.241 . S
O54 Co42 2.137 1_655 S
O54 C45 1.247 . S
O55 Co42 2.244 1_655 S
O55 C45 1.272 . S
O55 Co47 2.135 1_655 S
Co56 O57 2.216 . S
Co56 O58 2.091 . S
Co56 O60 2.004 . S
Co56 O66 2.021 . S
Co56 O68 2.137 . S
Co56 O69 2.244 . S
O57 Co56 2.216 . S
O57 C64 1.247 . S
O58 Co56 2.091 . S
O58 C64 1.261 . S
C59 O68 1.247 . S
C59 O69 1.272 . S
O60 Co56 2.004 . S
O60 C65 1.259 . S
Co61 O62 2.061 . S
Co61 O67 2.052 . S
Co61 O69 2.135 . S
O62 Co61 2.061 . S
O62 C65 1.235 . S
C63 O66 1.238 . S
C63 O67 1.241 . S
C64 O57 1.247 . S
C64 O58 1.261 . S
C65 O60 1.259 . S
C65 O62 1.235 . S
O66 Co56 2.021 . S
O66 C63 1.238 . S
O67 Co61 2.052 . S
O67 C63 1.241 . S
O68 Co56 2.137 . S
O68 C59 1.247 . S
O69 Co56 2.244 . S
O69 C59 1.272 . S
O69 Co61 2.135 . S
Co70 O71 2.216 1_455 S
Co70 O72 2.091 . S
Co70 O74 2.004 . S
Co70 O80 2.021 . S
Co70 O82 2.137 1_455 S
Co70 O83 2.244 1_455 S
O71 Co70 2.216 1_655 S
O71 C78 1.247 1_655 S
O72 Co70 2.091 . S
O72 C78 1.261 . S
C73 O82 1.247 . S
C73 O83 1.272 . S
O74 Co70 2.004 . S
O74 C79 1.259 . S
Co75 O76 2.061 . S
Co75 O81 2.052 . S
Co75 O83 2.135 1_455 S
O76 Co75 2.061 . S
O76 C79 1.235 . S
C77 O80 1.238 . S
C77 O81 1.241 . S
C78 O71 1.247 1_455 S
C78 O72 1.261 . S
C79 O74 1.259 . S
C79 O76 1.235 . S
O80 Co70 2.021 . S
O80 C77 1.238 . S
O81 Co75 2.052 . S
O81 C77 1.241 . S
O82 Co70 2.137 1_655 S
O82 C73 1.247 . S
O83 Co70 2.244 1_655 S
O83 C73 1.272 . S
O83 Co75 2.135 1_655 S
Co84 O85 2.216 1_545 S
Co84 O86 2.091 . S
Co84 O88 2.004 . S
Co84 O94 2.021 . S
Co84 O96 2.137 1_545 S
Co84 O97 2.244 1_545 S
O85 Co84 2.216 1_565 S
O85 C92 1.247 1_565 S
O86 Co84 2.091 . S
O86 C92 1.261 . S
C87 O96 1.247 . S
C87 O97 1.272 . S
O88 Co84 2.004 . S
O88 C93 1.259 . S
Co89 O90 2.061 . S
Co89 O95 2.052 . S
Co89 O97 2.135 1_545 S
O90 Co89 2.061 . S
O90 C93 1.235 . S
C91 O94 1.238 . S
C91 O95 1.241 . S
C92 O85 1.247 1_545 S
C92 O86 1.261 . S
C93 O88 1.259 . S
C93 O90 1.235 . S
O94 Co84 2.021 . S
O94 C91 1.238 . S
O95 Co89 2.052 . S
O95 C91 1.241 . S
O96 Co84 2.137 1_565 S
O96 C87 1.247 . S
O97 Co84 2.244 1_565 S
O97 C87 1.272 . S
O97 Co89 2.135 1_565 S
Co98 O99 2.216 . S
Co98 O100 2.091 . S
Co98 O102 2.004 . S
Co98 O108 2.021 . S
Co98 O110 2.137 . S
Co98 O111 2.244 . S
O99 Co98 2.216 . S
O99 C106 1.247 . S
O100 Co98 2.091 . S
O100 C106 1.261 . S
C101 O110 1.247 . S
C101 O111 1.272 . S
O102 Co98 2.004 . S
O102 C107 1.259 . S
Co103 O104 2.061 . S
Co103 O109 2.052 . S
Co103 O111 2.135 . S
O104 Co103 2.061 . S
O104 C107 1.235 . S
C105 O108 1.238 . S
C105 O109 1.241 . S
C106 O99 1.247 . S
C106 O100 1.261 . S
C107 O102 1.259 . S
C107 O104 1.235 . S
O108 Co98 2.021 . S
O108 C105 1.238 . S
O109 Co103 2.052 . S
O109 C105 1.241 . S
O110 Co98 2.137 . S
O110 C101 1.247 . S
O111 Co98 2.244 . S
O111 C101 1.272 . S
O111 Co103 2.135 . S
C112 C113 1.363 . S
C112 C118 1.379 1_554 S
C112 N120 1.356 . S
C113 C112 1.363 . S
C113 C119 1.363 . S
C114 C115 1.363 . S
C114 C119 1.379 1_556 S
C114 N121 1.356 . S
C115 C114 1.363 . S
C115 C118 1.363 . S
N116 C118 1.356 . S
N116 H128 0.984 1_545 S
N116 H129 0.985 . S
N117 C119 1.356 . S
N117 H122 0.984 . S
N117 H123 0.985 . S
C118 C112 1.379 1_556 S
C118 C115 1.363 . S
C118 N116 1.356 . S
C119 C113 1.363 . S
C119 C114 1.379 1_554 S
C119 N117 1.356 . S
N120 C112 1.356 . S
N120 H126 0.984 1_545 S
N120 H127 0.984 . S
N121 C114 1.356 . S
N121 H124 0.984 . S
N121 H125 0.985 . S
H122 N117 0.984 . S
H123 N117 0.985 . S
H124 N121 0.984 . S
H125 N121 0.985 . S
H126 N120 0.984 1_565 S
H127 N120 0.984 . S
H128 N116 0.984 1_565 S
H129 N116 0.985 . S
C130 C131 1.363 . S
C130 C136 1.379 . S
C130 N138 1.356 . S
C131 C130 1.363 . S
C131 C137 1.363 . S
C132 C133 1.363 . S
C132 C137 1.379 . S
C132 N139 1.356 . S
C133 C132 1.363 . S
C133 C136 1.363 . S
N134 C136 1.356 . S
N134 H146 0.984 1_455 S
N134 H147 0.985 . S
N135 C137 1.356 . S
N135 H140 0.984 . S
N135 H141 0.985 . S
C136 C130 1.379 . S
C136 C133 1.363 . S
C136 N134 1.356 . S
C137 C131 1.363 . S
C137 C132 1.379 . S
C137 N135 1.356 . S
N138 C130 1.356 . S
N138 H144 0.984 1_455 S
N138 H145 0.984 . S
N139 C132 1.356 . S
N139 H142 0.984 . S
N139 H143 0.985 . S
H140 N135 0.984 . S
H141 N135 0.985 . S
H142 N139 0.984 . S
H143 N139 0.985 . S
H144 N138 0.984 1_655 S
H145 N138 0.984 . S
H146 N134 0.984 1_655 S
H147 N134 0.985 . S
C148 C149 1.363 . S
C148 C154 1.379 1_556 S
C148 N156 1.356 . S
C149 C148 1.363 . S
C149 C155 1.363 . S
C150 C151 1.363 . S
C150 C155 1.379 1_554 S
C150 N157 1.356 1_545 S
C151 C150 1.363 . S
C151 C154 1.363 . S
N152 C154 1.356 . S
N152 H164 0.984 . S
N152 H165 0.985 . S
N153 C155 1.356 1_565 S
N153 H158 0.984 . S
N153 H159 0.985 . S
C154 C148 1.379 1_554 S
C154 C151 1.363 . S
C154 N152 1.356 . S
C155 C149 1.363 . S
C155 C150 1.379 1_556 S
C155 N153 1.356 1_545 S
N156 C148 1.356 . S
N156 H162 0.984 . S
N156 H163 0.984 . S
N157 C150 1.356 1_565 S
N157 H160 0.984 . S
N157 H161 0.985 . S
H158 N153 0.984 . S
H159 N153 0.985 . S
H160 N157 0.984 . S
H161 N157 0.985 . S
H162 N156 0.984 . S
H163 N156 0.984 . S
H164 N152 0.984 . S
H165 N152 0.985 . S
C166 C167 1.363 . S
C166 C172 1.379 . S
C166 N174 1.356 . S
C167 C166 1.363 . S
C167 C173 1.363 . S
C168 C169 1.363 . S
C168 C173 1.379 . S
C168 N175 1.356 . S
C169 C168 1.363 . S
C169 C172 1.363 . S
N170 C172 1.356 . S
N170 H182 0.984 1_455 S
N170 H183 0.985 . S
N171 C173 1.356 . S
N171 H176 0.984 . S
N171 H177 0.985 . S
C172 C166 1.379 . S
C172 C169 1.363 . S
C172 N170 1.356 . S
C173 C167 1.363 . S
C173 C168 1.379 . S
C173 N171 1.356 . S
N174 C166 1.356 . S
N174 H180 0.984 1_455 S
N174 H181 0.984 . S
N175 C168 1.356 . S
N175 H178 0.984 . S
N175 H179 0.985 . S
H176 N171 0.984 . S
H177 N171 0.985 . S
H178 N175 0.984 . S
H179 N175 0.985 . S
H180 N174 0.984 1_655 S
H181 N174 0.984 . S
H182 N170 0.984 1_655 S
H183 N170 0.985 . S
C184 C185 1.363 . S
C184 C190 1.379 . S
C184 N192 1.356 . S
C185 C184 1.363 . S
C185 C191 1.363 . S
C186 C187 1.363 . S
C186 C191 1.379 . S
C186 N193 1.356 . S
C187 C186 1.363 . S
C187 C190 1.363 . S
N188 C190 1.356 . S
N188 H200 0.984 . S
N188 H201 0.985 . S
N189 C191 1.356 1_565 S
N189 H194 0.984 . S
N189 H195 0.985 . S
C190 C184 1.379 . S
C190 C187 1.363 . S
C190 N188 1.356 . S
C191 C185 1.363 . S
C191 C186 1.379 . S
C191 N189 1.356 1_545 S
N192 C184 1.356 . S
N192 H198 0.984 . S
N192 H199 0.984 . S
N193 C186 1.356 . S
N193 H196 0.984 . S
N193 H197 0.985 . S
H194 N189 0.984 . S
H195 N189 0.985 . S
H196 N193 0.984 . S
H197 N193 0.985 . S
H198 N192 0.984 . S
H199 N192 0.984 . S
H200 N188 0.984 . S
H201 N188 0.985 . S
C202 C203 1.363 . S
C202 C208 1.379 . S
C202 N210 1.356 . S
C203 C202 1.363 . S
C203 C209 1.363 . S
C204 C205 1.363 . S
C204 C209 1.379 . S
C204 N211 1.356 1_455 S
C205 C204 1.363 . S
C205 C208 1.363 . S
N206 C208 1.356 . S
N206 H218 0.984 . S
N206 H219 0.985 . S
N207 C209 1.356 . S
N207 H212 0.984 . S
N207 H213 0.985 . S
C208 C202 1.379 . S
C208 C205 1.363 . S
C208 N206 1.356 . S
C209 C203 1.363 . S
C209 C204 1.379 . S
C209 N207 1.356 . S
N210 C202 1.356 . S
N210 H216 0.984 . S
N210 H217 0.984 . S
N211 C204 1.356 1_655 S
N211 H214 0.984 . S
N211 H215 0.985 . S
H212 N207 0.984 . S
H213 N207 0.985 . S
H214 N211 0.984 . S
H215 N211 0.985 . S
H216 N210 0.984 . S
H217 N210 0.984 . S
H218 N206 0.984 . S
H219 N206 0.985 . S
C220 C221 1.363 . S
C220 C226 1.379 . S
C220 N228 1.356 . S
C221 C220 1.363 . S
C221 C227 1.363 . S
C222 C223 1.363 . S
C222 C227 1.379 . S
C222 N229 1.356 . S
C223 C222 1.363 . S
C223 C226 1.363 . S
N224 C226 1.356 . S
N224 H236 0.984 . S
N224 H237 0.985 . S
N225 C227 1.356 1_565 S
N225 H230 0.984 . S
N225 H231 0.985 . S
C226 C220 1.379 . S
C226 C223 1.363 . S
C226 N224 1.356 . S
C227 C221 1.363 . S
C227 C222 1.379 . S
C227 N225 1.356 1_545 S
N228 C220 1.356 . S
N228 H234 0.984 . S
N228 H235 0.984 . S
N229 C222 1.356 . S
N229 H232 0.984 . S
N229 H233 0.985 . S
H230 N225 0.984 . S
H231 N225 0.985 . S
H232 N229 0.984 . S
H233 N229 0.985 . S
H234 N228 0.984 . S
H235 N228 0.984 . S
H236 N224 0.984 . S
H237 N224 0.985 . S
C238 C239 1.363 . S
C238 C244 1.379 . S
C238 N246 1.356 . S
C239 C238 1.363 . S
C239 C245 1.363 . S
C240 C241 1.363 . S
C240 C245 1.379 . S
C240 N247 1.356 . S
C241 C240 1.363 . S
C241 C244 1.363 . S
N242 C244 1.356 . S
N242 H254 0.984 . S
N242 H255 0.985 . S
N243 C245 1.356 1_655 S
N243 H248 0.984 . S
N243 H249 0.985 . S
C244 C238 1.379 . S
C244 C241 1.363 . S
C244 N242 1.356 . S
C245 C239 1.363 . S
C245 C240 1.379 . S
C245 N243 1.356 1_455 S
N246 C238 1.356 . S
N246 H252 0.984 . S
N246 H253 0.984 . S
N247 C240 1.356 . S
N247 H250 0.984 . S
N247 H251 0.985 . S
H248 N243 0.984 . S
H249 N243 0.985 . S
H250 N247 0.984 . S
H251 N247 0.985 . S
H252 N246 0.984 . S
H253 N246 0.984 . S
H254 N242 0.984 . S
H255 N242 0.985 . S
C256 C257 1.363 . S
C256 C262 1.379 . S
C256 N264 1.356 . S
C257 C256 1.363 . S
C257 C263 1.363 . S
C258 C259 1.363 . S
C258 C263 1.379 . S
C258 N265 1.356 . S
C259 C258 1.363 . S
C259 C262 1.363 . S
N260 C262 1.356 . S
N260 H272 0.984 . S
N260 H273 0.985 . S
N261 C263 1.356 . S
N261 H266 0.984 . S
N261 H267 0.985 . S
C262 C256 1.379 . S
C262 C259 1.363 . S
C262 N260 1.356 . S
C263 C257 1.363 . S
C263 C258 1.379 . S
C263 N261 1.356 . S
N264 C256 1.356 . S
N264 H270 0.984 . S
N264 H271 0.984 . S
N265 C258 1.356 . S
N265 H268 0.984 . S
N265 H269 0.985 . S
H266 N261 0.984 . S
H267 N261 0.985 . S
H268 N265 0.984 . S
H269 N265 0.985 . S
H270 N264 0.984 . S
H271 N264 0.984 . S
H272 N260 0.984 . S
H273 N260 0.985 . S
C274 C275 1.363 . S
C274 C280 1.379 . S
C274 N282 1.356 1_655 S
C275 C274 1.363 . S
C275 C281 1.363 . S
C276 C277 1.363 . S
C276 C281 1.379 . S
C276 N283 1.356 . S
C277 C276 1.363 . S
C277 C280 1.363 . S
N278 C280 1.356 . S
N278 H290 0.984 . S
N278 H291 0.985 . S
N279 C281 1.356 . S
N279 H284 0.984 . S
N279 H285 0.985 . S
C280 C274 1.379 . S
C280 C277 1.363 . S
C280 N278 1.356 . S
C281 C275 1.363 . S
C281 C276 1.379 . S
C281 N279 1.356 . S
N282 C274 1.356 1_455 S
N282 H288 0.984 . S
N282 H289 0.984 . S
N283 C276 1.356 . S
N283 H286 0.984 . S
N283 H287 0.985 . S
H284 N279 0.984 . S
H285 N279 0.985 . S
H286 N283 0.984 . S
H287 N283 0.985 . S
H288 N282 0.984 . S
H289 N282 0.984 . S
H290 N278 0.984 . S
H291 N278 0.985 . S
C292 C293 1.363 . S
C292 C298 1.379 . S
C292 N300 1.356 1_655 S
C293 C292 1.363 . S
C293 C299 1.363 . S
C294 C295 1.363 . S
C294 C299 1.379 . S
C294 N301 1.356 . S
C295 C294 1.363 . S
C295 C298 1.363 . S
N296 C298 1.356 . S
N296 H308 0.984 . S
N296 H309 0.992 . S
N297 C299 1.356 . S
N297 H302 0.984 . S
N297 H303 0.985 . S
C298 C292 1.379 . S
C298 C295 1.363 . S
C298 N296 1.356 . S
C299 C293 1.363 . S
C299 C294 1.379 . S
C299 N297 1.356 . S
N300 C292 1.356 1_455 S
N300 H306 0.984 . S
N300 H307 0.984 . S
N301 C294 1.356 . S
N301 H304 0.984 . S
N301 H305 0.985 . S
H302 N297 0.984 . S
H303 N297 0.985 . S
H304 N301 0.984 . S
H305 N301 0.985 . S
H306 N300 0.984 . S
H307 N300 0.984 . S
H308 N296 0.984 . S
H309 N296 0.992 . S
C310 C311 1.363 . S
C310 C316 1.379 . S
C310 N318 1.356 . S
C311 C310 1.363 . S
C311 C317 1.363 . S
C312 C313 1.363 . S
C312 C317 1.379 . S
C312 N319 1.356 . S
C313 C312 1.363 . S
C313 C316 1.363 . S
N314 C316 1.356 . S
N314 H326 0.984 . S
N314 H327 0.985 . S
N315 C317 1.356 . S
N315 H320 0.984 . S
N315 H321 0.985 . S
C316 C310 1.379 . S
C316 C313 1.363 . S
C316 N314 1.356 . S
C317 C311 1.363 . S
C317 C312 1.379 . S
C317 N315 1.356 . S
N318 C310 1.356 . S
N318 H324 0.984 . S
N318 H325 0.984 . S
N319 C312 1.356 . S
N319 H322 0.984 1_565 S
N319 H323 0.985 . S
H320 N315 0.984 . S
H321 N315 0.985 . S
H322 N319 0.984 1_545 S
H323 N319 0.985 . S
H324 N318 0.984 . S
H325 N318 0.984 . S
H326 N314 0.984 . S
H327 N314 0.985 . S
C328 C329 1.363 . S
C328 C334 1.379 . S
C328 N336 1.356 . S
C329 C328 1.363 . S
C329 C335 1.363 . S
C330 C331 1.363 . S
C330 C335 1.379 . S
C330 N337 1.356 . S
C331 C330 1.363 . S
C331 C334 1.363 . S
N332 C334 1.356 . S
N332 H344 0.984 . S
N332 H345 0.985 . S
N333 C335 1.356 . S
N333 H338 0.984 . S
N333 H339 0.985 . S
C334 C328 1.379 . S
C334 C331 1.363 . S
C334 N332 1.356 . S
C335 C329 1.363 . S
C335 C330 1.379 . S
C335 N333 1.356 . S
N336 C328 1.356 . S
N336 H342 0.984 . S
N336 H343 0.984 . S
N337 C330 1.356 . S
N337 H340 0.984 . S
N337 H341 0.985 . S
H338 N333 0.984 . S
H339 N333 0.985 . S
H340 N337 0.984 . S
H341 N337 0.985 . S
H342 N336 0.984 . S
H343 N336 0.984 . S
H344 N332 0.984 . S
H345 N332 0.985 . S
C346 C347 1.363 . S
C346 C352 1.379 . S
C346 N354 1.356 . S
C347 C346 1.363 . S
C347 C353 1.363 . S
C348 C349 1.363 . S
C348 C353 1.379 . S
C348 N355 1.356 . S
C349 C348 1.363 . S
C349 C352 1.363 . S
N350 C352 1.356 . S
N350 H362 0.984 . S
N350 H363 0.985 . S
N351 C353 1.356 . S
N351 H356 0.984 . S
N351 H357 0.985 . S
C352 C346 1.379 . S
C352 C349 1.363 . S
C352 N350 1.356 . S
C353 C347 1.363 . S
C353 C348 1.379 . S
C353 N351 1.356 . S
N354 C346 1.356 . S
N354 H360 0.984 . S
N354 H361 0.984 . S
N355 C348 1.356 . S
N355 H358 0.984 . S
N355 H359 0.985 . S
H356 N351 0.984 . S
H357 N351 0.985 . S
H358 N355 0.984 . S
H359 N355 0.985 . S
H360 N354 0.984 . S
H361 N354 0.984 . S
H362 N350 0.984 . S
H363 N350 0.985 . S
C364 C365 1.363 . S
C364 C370 1.379 . S
C364 N372 1.356 . S
C365 C364 1.363 . S
C365 C371 1.363 . S
C366 C367 1.363 . S
C366 C371 1.379 . S
C366 N373 1.356 . S
C367 C366 1.363 . S
C367 C370 1.363 . S
N368 C370 1.356 . S
N368 H380 0.984 . S
N368 H381 0.985 . S
N369 C371 1.356 . S
N369 H374 0.984 . S
N369 H375 0.985 . S
C370 C364 1.379 . S
C370 C367 1.363 . S
C370 N368 1.356 . S
C371 C365 1.363 . S
C371 C366 1.379 . S
C371 N369 1.356 . S
N372 C364 1.356 . S
N372 H378 0.984 . S
N372 H379 0.984 . S
N373 C366 1.356 . S
N373 H376 0.984 . S
N373 H377 0.985 . S
H374 N369 0.984 . S
H375 N369 0.985 . S
H376 N373 0.984 . S
H377 N373 0.985 . S
H378 N372 0.984 . S
H379 N372 0.984 . S
H380 N368 0.984 . S
H381 N368 0.985 . S
C382 C383 1.363 . S
C382 C388 1.379 . S
C382 N390 1.356 . S
C383 C382 1.363 . S
C383 C389 1.363 . S
C384 C385 1.363 . S
C384 C389 1.379 . S
C384 N391 1.356 . S
C385 C384 1.363 . S
C385 C388 1.363 . S
N386 C388 1.356 . S
N386 H398 0.984 . S
N386 H399 0.985 . S
N387 C389 1.356 . S
N387 H392 0.984 . S
N387 H393 0.985 . S
C388 C382 1.379 . S
C388 C385 1.363 . S
C388 N386 1.356 . S
C389 C383 1.363 . S
C389 C384 1.379 . S
C389 N387 1.356 . S
N390 C382 1.356 . S
N390 H396 0.984 . S
N390 H397 0.984 . S
N391 C384 1.356 . S
N391 H394 0.984 . S
N391 H395 0.985 . S
H392 N387 0.984 . S
H393 N387 0.985 . S
H394 N391 0.984 . S
H395 N391 0.985 . S
H396 N390 0.984 . S
H397 N390 0.984 . S
H398 N386 0.984 . S
H399 N386 0.985 . S
C113 C7 1.528 . S
C115 C63 1.528 . S
C131 C21 1.528 . S
C133 C77 1.528 . S
C149 C91 1.528 . S
C151 C35 1.528 . S
C167 C105 1.528 . S
C169 C49 1.528 . S
C185 C8 1.435 . S
C187 C36 1.435 . S
C203 C22 1.435 . S
C205 C50 1.435 . S
C221 C92 1.435 . S
C223 C64 1.435 . S
C239 C78 1.435 . S
C241 C106 1.435 . S
C257 C79 1.475 . S
C259 C9 1.475 . S
C275 C23 1.475 1_655 S
C277 C93 1.475 . S
C293 C107 1.475 1_655 S
C295 C37 1.475 1_565 S
C311 C51 1.475 . S
C313 C65 1.475 1_565 S
C329 C87 1.338 . S
C331 C45 1.338 . S
C347 C3 1.338 . S
C349 C101 1.338 . S
C365 C17 1.338 . S
C367 C59 1.338 . S
C383 C73 1.338 . S
C385 C31 1.338 . S
