# Generated by pormake.
# Topology dft, (4)-cn, num edge types: 1
# Building blocks:
#     Node 0, Type 0, BuildingBlock: GALJAG_clean_sbu_0, # of connection points: 4
#     Node 1, Type 0, BuildingBlock: GALJAG_clean_sbu_0, # of connection points: 4
#     Node 2, Type 0, BuildingBlock: GALJAG_clean_sbu_0, # of connection points: 4
#     Node 3, Type 0, BuildingBlock: GALJAG_clean_sbu_0, # of connection points: 4
#     Node 4, Type 0, BuildingBlock: GALJAG_clean_sbu_0, # of connection points: 4
#     Node 5, Type 0, BuildingBlock: GALJAG_clean_sbu_0, # of connection points: 4
#     Node 6, Type 0, BuildingBlock: GALJAG_clean_sbu_0, # of connection points: 4
#     Node 7, Type 0, BuildingBlock: GALJAG_clean_sbu_0, # of connection points: 4
#     Edge 8, Type (0, 0), BuildingBlock: EYOCIG_clean_linker_4, # of connection points: 2
#     Edge 9, Type (0, 0), BuildingBlock: EYOCIG_clean_linker_4, # of connection points: 2
#     Edge 10, Type (0, 0), BuildingBlock: EYOCIG_clean_linker_4, # of connection points: 2
#     Edge 11, Type (0, 0), BuildingBlock: EYOCIG_clean_linker_4, # of connection points: 2
#     Edge 12, Type (0, 0), BuildingBlock: EYOCIG_clean_linker_4, # of connection points: 2
#     Edge 13, Type (0, 0), BuildingBlock: EYOCIG_clean_linker_4, # of connection points: 2
#     Edge 14, Type (0, 0), BuildingBlock: EYOCIG_clean_linker_4, # of connection points: 2
#     Edge 15, Type (0, 0), BuildingBlock: EYOCIG_clean_linker_4, # of connection points: 2
#     Edge 16, Type (0, 0), BuildingBlock: EYOCIG_clean_linker_4, # of connection points: 2
#     Edge 17, Type (0, 0), BuildingBlock: EYOCIG_clean_linker_4, # of connection points: 2
#     Edge 18, Type (0, 0), BuildingBlock: EYOCIG_clean_linker_4, # of connection points: 2
#     Edge 19, Type (0, 0), BuildingBlock: EYOCIG_clean_linker_4, # of connection points: 2
#     Edge 20, Type (0, 0), BuildingBlock: EYOCIG_clean_linker_4, # of connection points: 2
#     Edge 21, Type (0, 0), BuildingBlock: EYOCIG_clean_linker_4, # of connection points: 2
#     Edge 22, Type (0, 0), BuildingBlock: EYOCIG_clean_linker_4, # of connection points: 2
#     Edge 23, Type (0, 0), BuildingBlock: EYOCIG_clean_linker_4, # of connection points: 2
# Relax obj value: 0.096
# Max RMSD: 0.146
# Mean RMSD: 0.146
data_MOF--net-dft--node1-GALJAG_clean_sbu_0--edge1-EYOCIG_clean_linker_4
_symmetry_space_group_name_H-M    P1
_symmetry_Int_Tables_number       1
_symmetry_cell_setting            triclinic
loop_
_symmetry_equiv_pos_as_xyz
'x, y, z'
_cell_length_a     26.747548
_cell_length_b     26.73369
_cell_length_c     35.642599
_cell_angle_alpha  89.984045
_cell_angle_beta   89.989149
_cell_angle_gamma 89.964622
loop_
_atom_site_label
_atom_site_type_symbol
_atom_site_fract_x
_atom_site_fract_y
_atom_site_fract_z
_atom_type_partial_charge
In0 In 0.31174 0.03092 0.16822 0.0
O1 O 0.38486 0.07153 0.18056 0.0
O2 O 0.38845 0.99345 0.16888 0.0
C3 C 0.25121 0.09976 0.20042 0.0
C4 C 0.30938 0.03584 0.09273 0.0
C5 C 0.27556 0.95023 0.20408 0.0
O6 O 0.29572 0.093 0.21069 0.0
O7 O 0.23718 0.07309 0.17326 0.0
O8 O 0.26241 0.96179 0.17129 0.0
O9 O 0.30746 0.97869 0.21891 0.0
C10 C 0.41165 0.03313 0.17658 0.0
O11 O 0.3019 -0.00415 0.11047 0.0
O12 O 0.31709 0.07395 0.11271 0.0
In13 In 0.04249 0.31181 0.66777 0.0
O14 O 0.00307 0.38565 0.68027 0.0
O15 O 0.08088 0.38809 0.66761 0.0
C16 C 0.9738 0.25142 0.70021 0.0
C17 C 0.03646 0.3089 0.59233 0.0
C18 C 0.12277 0.2754 0.70402 0.0
O19 O 0.97995 0.29625 0.70997 0.0
O20 O 0.00086 0.23707 0.67336 0.0
O21 O 0.11202 0.26292 0.67093 0.0
O22 O 0.09384 0.30689 0.71888 0.0
C23 C 0.04168 0.41191 0.67565 0.0
O24 O 0.07654 0.3008 0.60978 0.0
O25 O -0.00121 0.31745 0.61259 0.0
In26 In 0.76102 0.04304 0.16798 0.0
O27 O 0.6874 0.00351 0.18065 0.0
O28 O 0.68473 0.0814 0.16807 0.0
C29 C 0.82105 0.97451 0.20102 0.0
C30 C 0.76408 0.03657 0.09252 0.0
C31 C 0.79741 0.12371 0.2037 0.0
O32 O 0.77619 0.98085 0.21058 0.0
O33 O 0.83563 0.00133 0.1741 0.0
O34 O 0.81038 0.11221 0.17086 0.0
O35 O 0.7655 0.0953 0.21859 0.0
C36 C 0.66106 0.04215 0.17622 0.0
O37 O 0.77164 0.07685 0.10984 0.0
O38 O 0.75588 -0.00107 0.11292 0.0
In39 In 0.03062 0.76177 0.66792 0.0
O40 O -0.00329 0.77215 0.60985 0.0
O41 O 0.07492 0.75787 0.61292 0.0
C42 C 0.94934 0.79789 0.70309 0.0
C43 C 0.03281 0.66163 0.67542 0.0
C44 C 0.0987 0.8217 0.7015 0.0
O45 O 0.96155 0.81136 0.67051 0.0
O46 O 0.97739 0.76565 0.71802 0.0
O47 O 0.09154 0.77709 0.71145 0.0
O48 O 0.07283 0.8361 0.67401 0.0
C49 C 0.03716 0.76549 0.59254 0.0
O50 O 0.0711 0.68836 0.67993 0.0
O51 O 0.99325 0.68499 0.6676 0.0
In52 In 0.31183 0.04258 0.82981 0.0
O53 O 0.30165 0.0764 0.88792 0.0
O54 O 0.31732 -0.00159 0.88479 0.0
C55 C 0.27471 0.12334 0.79449 0.0
C56 C 0.41186 0.04128 0.82171 0.0
C57 C 0.2516 0.97395 0.7972 0.0
O58 O 0.26224 0.1117 0.82742 0.0
O59 O 0.3065 0.09503 0.77932 0.0
O60 O 0.29597 0.98119 0.78675 0.0
O61 O 0.23763 -4e-05 0.82474 0.0
C62 C 0.30934 0.03608 0.9052 0.0
O63 O 0.38541 0.00279 0.81715 0.0
O64 O 0.38826 0.08063 0.82976 0.0
In65 In 0.02994 0.31235 0.3293 0.0
O66 O 0.06962 0.38617 0.3175 0.0
O67 O 0.99153 0.38864 0.3292 0.0
C68 C 0.09867 0.25281 0.29594 0.0
C69 C 0.03588 0.3092 0.40473 0.0
C70 C 0.94928 0.27562 0.29381 0.0
O71 O 0.09119 0.29734 0.28591 0.0
O72 O 0.0729 0.23836 0.32347 0.0
O73 O 0.96141 0.26215 0.32642 0.0
O74 O 0.97709 0.30816 0.27903 0.0
C75 C 0.03091 0.41244 0.32169 0.0
O76 O -0.00424 0.30151 0.38725 0.0
O77 O 0.07364 0.31748 0.38451 0.0
In78 In 0.76153 0.03019 0.82937 0.0
O79 O 0.77221 -0.00453 0.88721 0.0
O80 O 0.75691 0.07355 0.88478 0.0
C81 C 0.79723 0.94954 0.79317 0.0
C82 C 0.66146 0.03221 0.82182 0.0
C83 C 0.8217 0.09864 0.79635 0.0
O84 O 0.81079 0.96096 0.82589 0.0
O85 O 0.76508 0.97804 0.77863 0.0
O86 O 0.77695 0.09212 0.78661 0.0
O87 O 0.83611 0.07204 0.82345 0.0
C88 C 0.76489 0.03556 0.90486 0.0
O89 O 0.68807 0.07067 0.81763 0.0
O90 O 0.68491 0.99257 0.82932 0.0
In91 In 0.04286 0.76217 0.32954 0.0
O92 O 0.07781 0.77262 0.38725 0.0
O93 O -0.00033 0.75784 0.385 0.0
C94 C 0.12362 0.79807 0.29364 0.0
C95 C 0.04039 0.66208 0.32194 0.0
C96 C 0.97424 0.8224 0.2968 0.0
O97 O 0.11199 0.81147 0.32635 0.0
O98 O 0.09523 0.76601 0.27892 0.0
O99 O 0.98126 0.77787 0.28663 0.0
O100 O 0.00053 0.83659 0.32411 0.0
C101 C 0.03775 0.76566 0.40498 0.0
O102 O 0.00208 0.68893 0.31776 0.0
O103 O 0.0801 0.6853 0.32947 0.0
C104 C 0.31057 0.03632 0.01873 0.0
C105 C 0.31024 0.03722 0.05253 0.0
C106 C 0.31057 0.03444 0.97918 0.0
C107 C 0.31026 0.03391 0.94538 0.0
C108 C 0.03523 0.31002 0.51832 0.0
C109 C 0.0346 0.30976 0.55212 0.0
C110 C 0.03704 0.31007 0.47875 0.0
C111 C 0.0377 0.30992 0.44495 0.0
C112 C 0.76386 0.03646 0.9789 0.0
C113 C 0.76413 0.03713 0.94509 0.0
C114 C 0.76363 0.03482 0.01849 0.0
C115 C 0.76359 0.0344 0.0523 0.0
C116 C 0.03708 0.76526 0.47899 0.0
C117 C 0.03627 0.76524 0.4452 0.0
C118 C 0.03888 0.76523 0.51855 0.0
C119 C 0.03936 0.76512 0.55235 0.0
C120 C 0.51002 0.03692 0.18058 0.0
C121 C 0.46511 0.03504 0.17874 0.0
C122 C 0.56267 0.03939 0.18048 0.0
C123 C 0.60759 0.04092 0.17849 0.0
C124 C 0.03895 0.51044 0.67915 0.0
C125 C 0.04045 0.46546 0.67751 0.0
C126 C 0.03652 0.56314 0.67908 0.0
C127 C 0.03468 0.60811 0.67738 0.0
C128 C 0.56301 0.03572 0.81817 0.0
C129 C 0.60795 0.03394 0.81986 0.0
C130 C 0.51033 0.03816 0.81812 0.0
C131 C 0.46537 0.03978 0.81979 0.0
C132 C 0.03381 0.51095 0.3182 0.0
C133 C 0.03215 0.46598 0.31984 0.0
C134 C 0.03643 0.56363 0.31825 0.0
C135 C 0.0384 0.60858 0.31996 0.0
C136 C 0.15956 0.19313 0.25826 0.0
C137 C 0.13166 0.21998 0.2757 0.0
C138 C 0.19116 0.16124 0.23722 0.0
C139 C 0.21801 0.13301 0.22008 0.0
C140 C 0.91308 0.1912 0.73755 0.0
C141 C 0.94095 0.21819 0.72021 0.0
C142 C 0.88152 0.15946 0.75874 0.0
C143 C 0.85472 0.13155 0.7762 0.0
C144 C 0.91287 0.88222 0.25969 0.0
C145 C 0.94104 0.85544 0.27695 0.0
C146 C 0.88099 0.91376 0.23861 0.0
C147 C 0.85404 0.94161 0.22121 0.0
C148 C 0.15963 0.88132 0.7391 0.0
C149 C 0.1317 0.85455 0.72167 0.0
C150 C 0.19143 0.91296 0.76015 0.0
C151 C 0.21841 0.94094 0.77736 0.0
C152 C 0.84329 0.87715 0.75685 0.0
C153 C 0.82132 0.91047 0.77246 0.0
C154 C 0.8764 0.84416 0.73861 0.0
C155 C 0.90993 0.82217 0.72328 0.0
C156 C 0.22937 0.87745 0.23981 0.0
C157 C 0.25138 0.91095 0.22446 0.0
C158 C 0.19628 0.84428 0.25783 0.0
C159 C 0.16284 0.82221 0.27319 0.0
C160 C 0.1947 0.2287 0.74041 0.0
C161 C 0.16159 0.25083 0.72466 0.0
C162 C 0.22764 0.1957 0.75882 0.0
C163 C 0.24987 0.16243 0.77431 0.0
C164 C 0.87686 0.22905 0.258 0.0
C165 C 0.91016 0.25118 0.27347 0.0
C166 C 0.84389 0.19606 0.23969 0.0
C167 C 0.82183 0.16278 0.22413 0.0
loop_
_geom_bond_atom_site_label_1
_geom_bond_atom_site_label_2
_geom_bond_distance
_geom_bond_site_symmetry_2
_ccdc_geom_bond_type
In0 O1 2.294 . S
In0 O2 2.326 1_545 S
In0 O6 2.266 . S
In0 O7 2.326 . S
In0 O8 2.266 1_545 S
In0 O9 2.326 1_545 S
In0 O11 2.294 . S
In0 O12 2.326 . S
O1 In0 2.294 . S
O1 C10 1.240 . S
O2 In0 2.326 1_565 S
O2 C10 1.252 1_565 S
C3 O6 1.252 . S
C3 O7 1.260 . S
C4 O11 1.240 . S
C4 O12 1.252 . S
C5 O8 1.252 . S
C5 O9 1.260 . S
O6 In0 2.266 . S
O6 C3 1.252 . S
O7 In0 2.326 . S
O7 C3 1.260 . S
O8 In0 2.266 1_565 S
O8 C5 1.252 . S
O9 In0 2.326 1_565 S
O9 C5 1.260 . S
C10 O1 1.240 . S
C10 O2 1.252 1_545 S
O11 In0 2.294 . S
O11 C4 1.240 . S
O12 In0 2.326 . S
O12 C4 1.252 . S
In13 O14 2.294 . S
In13 O15 2.326 . S
In13 O19 2.266 1_455 S
In13 O20 2.326 . S
In13 O21 2.266 . S
In13 O22 2.326 . S
In13 O24 2.294 . S
In13 O25 2.326 . S
O14 In13 2.294 . S
O14 C23 1.240 . S
O15 In13 2.326 . S
O15 C23 1.252 . S
C16 O19 1.252 . S
C16 O20 1.260 1_655 S
C17 O24 1.240 . S
C17 O25 1.252 . S
C18 O21 1.252 . S
C18 O22 1.260 . S
O19 In13 2.266 1_655 S
O19 C16 1.252 . S
O20 In13 2.326 . S
O20 C16 1.260 1_455 S
O21 In13 2.266 . S
O21 C18 1.252 . S
O22 In13 2.326 . S
O22 C18 1.260 . S
C23 O14 1.240 . S
C23 O15 1.252 . S
O24 In13 2.294 . S
O24 C17 1.240 . S
O25 In13 2.326 . S
O25 C17 1.252 . S
In26 O27 2.294 . S
In26 O28 2.326 . S
In26 O32 2.266 1_545 S
In26 O33 2.326 . S
In26 O34 2.266 . S
In26 O35 2.326 . S
In26 O37 2.294 . S
In26 O38 2.326 . S
O27 In26 2.294 . S
O27 C36 1.240 . S
O28 In26 2.326 . S
O28 C36 1.252 . S
C29 O32 1.252 . S
C29 O33 1.260 1_565 S
C30 O37 1.240 . S
C30 O38 1.252 . S
C31 O34 1.252 . S
C31 O35 1.260 . S
O32 In26 2.266 1_565 S
O32 C29 1.252 . S
O33 In26 2.326 . S
O33 C29 1.260 1_545 S
O34 In26 2.266 . S
O34 C31 1.252 . S
O35 In26 2.326 . S
O35 C31 1.260 . S
C36 O27 1.240 . S
C36 O28 1.252 . S
O37 In26 2.294 . S
O37 C30 1.240 . S
O38 In26 2.326 . S
O38 C30 1.252 . S
In39 O40 2.294 . S
In39 O41 2.326 . S
In39 O45 2.266 1_455 S
In39 O46 2.326 1_455 S
In39 O47 2.266 . S
In39 O48 2.326 . S
In39 O50 2.294 . S
In39 O51 2.326 1_455 S
O40 In39 2.294 . S
O40 C49 1.240 . S
O41 In39 2.326 . S
O41 C49 1.252 . S
C42 O45 1.252 . S
C42 O46 1.260 . S
C43 O50 1.240 . S
C43 O51 1.252 1_455 S
C44 O47 1.252 . S
C44 O48 1.260 . S
O45 In39 2.266 1_655 S
O45 C42 1.252 . S
O46 In39 2.326 1_655 S
O46 C42 1.260 . S
O47 In39 2.266 . S
O47 C44 1.252 . S
O48 In39 2.326 . S
O48 C44 1.260 . S
C49 O40 1.240 . S
C49 O41 1.252 . S
O50 In39 2.294 . S
O50 C43 1.240 . S
O51 In39 2.326 1_655 S
O51 C43 1.252 1_655 S
In52 O53 2.294 . S
In52 O54 2.326 . S
In52 O58 2.266 . S
In52 O59 2.326 . S
In52 O60 2.266 1_545 S
In52 O61 2.326 . S
In52 O63 2.294 . S
In52 O64 2.326 . S
O53 In52 2.294 . S
O53 C62 1.240 . S
O54 In52 2.326 . S
O54 C62 1.252 . S
C55 O58 1.252 . S
C55 O59 1.260 . S
C56 O63 1.240 . S
C56 O64 1.252 . S
C57 O60 1.252 . S
C57 O61 1.260 1_565 S
O58 In52 2.266 . S
O58 C55 1.252 . S
O59 In52 2.326 . S
O59 C55 1.260 . S
O60 In52 2.266 1_565 S
O60 C57 1.252 . S
O61 In52 2.326 . S
O61 C57 1.260 1_545 S
C62 O53 1.240 . S
C62 O54 1.252 . S
O63 In52 2.294 . S
O63 C56 1.240 . S
O64 In52 2.326 . S
O64 C56 1.252 . S
In65 O66 2.294 . S
In65 O67 2.326 1_455 S
In65 O71 2.266 . S
In65 O72 2.326 . S
In65 O73 2.266 1_455 S
In65 O74 2.326 1_455 S
In65 O76 2.294 . S
In65 O77 2.326 . S
O66 In65 2.294 . S
O66 C75 1.240 . S
O67 In65 2.326 1_655 S
O67 C75 1.252 1_655 S
C68 O71 1.252 . S
C68 O72 1.260 . S
C69 O76 1.240 . S
C69 O77 1.252 . S
C70 O73 1.252 . S
C70 O74 1.260 . S
O71 In65 2.266 . S
O71 C68 1.252 . S
O72 In65 2.326 . S
O72 C68 1.260 . S
O73 In65 2.266 1_655 S
O73 C70 1.252 . S
O74 In65 2.326 1_655 S
O74 C70 1.260 . S
C75 O66 1.240 . S
C75 O67 1.252 1_455 S
O76 In65 2.294 . S
O76 C69 1.240 . S
O77 In65 2.326 . S
O77 C69 1.252 . S
In78 O79 2.294 . S
In78 O80 2.326 . S
In78 O84 2.266 1_545 S
In78 O85 2.326 1_545 S
In78 O86 2.266 . S
In78 O87 2.326 . S
In78 O89 2.294 . S
In78 O90 2.326 1_545 S
O79 In78 2.294 . S
O79 C88 1.240 . S
O80 In78 2.326 . S
O80 C88 1.252 . S
C81 O84 1.252 . S
C81 O85 1.260 . S
C82 O89 1.240 . S
C82 O90 1.252 1_545 S
C83 O86 1.252 . S
C83 O87 1.260 . S
O84 In78 2.266 1_565 S
O84 C81 1.252 . S
O85 In78 2.326 1_565 S
O85 C81 1.260 . S
O86 In78 2.266 . S
O86 C83 1.252 . S
O87 In78 2.326 . S
O87 C83 1.260 . S
C88 O79 1.240 . S
C88 O80 1.252 . S
O89 In78 2.294 . S
O89 C82 1.240 . S
O90 In78 2.326 1_565 S
O90 C82 1.252 1_565 S
In91 O92 2.294 . S
In91 O93 2.326 . S
In91 O97 2.266 . S
In91 O98 2.326 . S
In91 O99 2.266 1_455 S
In91 O100 2.326 . S
In91 O102 2.294 . S
In91 O103 2.326 . S
O92 In91 2.294 . S
O92 C101 1.240 . S
O93 In91 2.326 . S
O93 C101 1.252 . S
C94 O97 1.252 . S
C94 O98 1.260 . S
C95 O102 1.240 . S
C95 O103 1.252 . S
C96 O99 1.252 . S
C96 O100 1.260 1_655 S
O97 In91 2.266 . S
O97 C94 1.252 . S
O98 In91 2.326 . S
O98 C94 1.260 . S
O99 In91 2.266 1_655 S
O99 C96 1.252 . S
O100 In91 2.326 . S
O100 C96 1.260 1_455 S
C101 O92 1.240 . S
C101 O93 1.252 . S
O102 In91 2.294 . S
O102 C95 1.240 . S
O103 In91 2.326 . S
O103 C95 1.252 . S
C104 C105 1.170 . S
C104 C106 1.380 1_554 S
C105 C104 1.170 . S
C106 C104 1.380 1_556 S
C106 C107 1.170 . S
C107 C106 1.170 . S
C108 C109 1.170 . S
C108 C110 1.380 . S
C109 C108 1.170 . S
C110 C108 1.380 . S
C110 C111 1.170 . S
C111 C110 1.170 . S
C112 C113 1.170 . S
C112 C114 1.380 1_556 S
C113 C112 1.170 . S
C114 C112 1.380 1_554 S
C114 C115 1.170 . S
C115 C114 1.170 . S
C116 C117 1.170 . S
C116 C118 1.380 . S
C117 C116 1.170 . S
C118 C116 1.380 . S
C118 C119 1.170 . S
C119 C118 1.170 . S
C120 C121 1.170 . S
C120 C122 1.380 . S
C121 C120 1.170 . S
C122 C120 1.380 . S
C122 C123 1.170 . S
C123 C122 1.170 . S
C124 C125 1.170 . S
C124 C126 1.380 . S
C125 C124 1.170 . S
C126 C124 1.380 . S
C126 C127 1.170 . S
C127 C126 1.170 . S
C128 C129 1.170 . S
C128 C130 1.380 . S
C129 C128 1.170 . S
C130 C128 1.380 . S
C130 C131 1.170 . S
C131 C130 1.170 . S
C132 C133 1.170 . S
C132 C134 1.380 . S
C133 C132 1.170 . S
C134 C132 1.380 . S
C134 C135 1.170 . S
C135 C134 1.170 . S
C136 C137 1.170 . S
C136 C138 1.380 . S
C137 C136 1.170 . S
C138 C136 1.380 . S
C138 C139 1.170 . S
C139 C138 1.170 . S
C140 C141 1.170 . S
C140 C142 1.380 . S
C141 C140 1.170 . S
C142 C140 1.380 . S
C142 C143 1.170 . S
C143 C142 1.170 . S
C144 C145 1.170 . S
C144 C146 1.380 . S
C145 C144 1.170 . S
C146 C144 1.380 . S
C146 C147 1.170 . S
C147 C146 1.170 . S
C148 C149 1.170 . S
C148 C150 1.380 . S
C149 C148 1.170 . S
C150 C148 1.380 . S
C150 C151 1.170 . S
C151 C150 1.170 . S
C152 C153 1.170 . S
C152 C154 1.380 . S
C153 C152 1.170 . S
C154 C152 1.380 . S
C154 C155 1.170 . S
C155 C154 1.170 . S
C156 C157 1.170 . S
C156 C158 1.380 . S
C157 C156 1.170 . S
C158 C156 1.380 . S
C158 C159 1.170 . S
C159 C158 1.170 . S
C160 C161 1.170 . S
C160 C162 1.380 . S
C161 C160 1.170 . S
C162 C160 1.380 . S
C162 C163 1.170 . S
C163 C162 1.170 . S
C164 C165 1.170 . S
C164 C166 1.380 . S
C165 C164 1.170 . S
C166 C164 1.380 . S
C166 C167 1.170 . S
C167 C166 1.170 . S
C105 C4 1.591 . S
C107 C62 1.601 . S
C109 C17 1.601 . S
C111 C69 1.591 . S
C113 C88 1.590 . S
C115 C30 1.603 . S
C117 C101 1.594 . S
C119 C49 1.605 . S
C121 C10 1.457 . S
C123 C36 1.473 . S
C125 C23 1.467 . S
C127 C43 1.443 . S
C129 C82 1.455 . S
C131 C56 1.448 . S
C133 C75 1.464 . S
C135 C95 1.443 . S
C137 C68 1.619 . S
C139 C3 1.630 . S
C141 C16 1.623 . S
C143 C83 1.616 . S
C145 C96 1.630 . S
C147 C29 1.618 . S
C149 C44 1.617 . S
C151 C57 1.630 . S
C153 C81 1.314 . S
C155 C42 1.303 . S
C157 C5 1.314 . S
C159 C94 1.306 . S
C161 C18 1.304 . S
C163 C55 1.287 . S
C165 C70 1.304 . S
C167 C31 1.314 . S
