# Generated by pormake.
# Topology dft, (4)-cn, num edge types: 1
# Building blocks:
#     Node 0, Type 0, BuildingBlock: NAHDIM_clean_sbu_0, # of connection points: 4
#     Node 1, Type 0, BuildingBlock: NAHDIM_clean_sbu_0, # of connection points: 4
#     Node 2, Type 0, BuildingBlock: NAHDIM_clean_sbu_0, # of connection points: 4
#     Node 3, Type 0, BuildingBlock: NAHDIM_clean_sbu_0, # of connection points: 4
#     Node 4, Type 0, BuildingBlock: NAHDIM_clean_sbu_0, # of connection points: 4
#     Node 5, Type 0, BuildingBlock: NAHDIM_clean_sbu_0, # of connection points: 4
#     Node 6, Type 0, BuildingBlock: NAHDIM_clean_sbu_0, # of connection points: 4
#     Node 7, Type 0, BuildingBlock: NAHDIM_clean_sbu_0, # of connection points: 4
#     Edge 8, Type (0, 0), BuildingBlock: EZIPEK_clean_linker_0, # of connection points: 2
#     Edge 9, Type (0, 0), BuildingBlock: EZIPEK_clean_linker_0, # of connection points: 2
#     Edge 10, Type (0, 0), BuildingBlock: EZIPEK_clean_linker_0, # of connection points: 2
#     Edge 11, Type (0, 0), BuildingBlock: EZIPEK_clean_linker_0, # of connection points: 2
#     Edge 12, Type (0, 0), BuildingBlock: EZIPEK_clean_linker_0, # of connection points: 2
#     Edge 13, Type (0, 0), BuildingBlock: EZIPEK_clean_linker_0, # of connection points: 2
#     Edge 14, Type (0, 0), BuildingBlock: EZIPEK_clean_linker_0, # of connection points: 2
#     Edge 15, Type (0, 0), BuildingBlock: EZIPEK_clean_linker_0, # of connection points: 2
#     Edge 16, Type (0, 0), BuildingBlock: EZIPEK_clean_linker_0, # of connection points: 2
#     Edge 17, Type (0, 0), BuildingBlock: EZIPEK_clean_linker_0, # of connection points: 2
#     Edge 18, Type (0, 0), BuildingBlock: EZIPEK_clean_linker_0, # of connection points: 2
#     Edge 19, Type (0, 0), BuildingBlock: EZIPEK_clean_linker_0, # of connection points: 2
#     Edge 20, Type (0, 0), BuildingBlock: EZIPEK_clean_linker_0, # of connection points: 2
#     Edge 21, Type (0, 0), BuildingBlock: EZIPEK_clean_linker_0, # of connection points: 2
#     Edge 22, Type (0, 0), BuildingBlock: EZIPEK_clean_linker_0, # of connection points: 2
#     Edge 23, Type (0, 0), BuildingBlock: EZIPEK_clean_linker_0, # of connection points: 2
# Relax obj value: 0.140
# Max RMSD: 0.139
# Mean RMSD: 0.139
data_MOF--net-dft--node1-NAHDIM_clean_sbu_0--edge1-EZIPEK_clean_linker_0
_symmetry_space_group_name_H-M    P1
_symmetry_Int_Tables_number       1
_symmetry_cell_setting            triclinic
loop_
_symmetry_equiv_pos_as_xyz
'x, y, z'
_cell_length_a     25.983884
_cell_length_b     26.124416
_cell_length_c     28.509605
_cell_angle_alpha  89.879787
_cell_angle_beta   90.518871
_cell_angle_gamma 90.12424
loop_
_atom_site_label
_atom_site_type_symbol
_atom_site_fract_x
_atom_site_fract_y
_atom_site_fract_z
_atom_type_partial_charge
C0 C 0.41264 0.02641 0.22709 0.0
O1 O 0.40108 0.06367 0.19791 0.0
O2 O 0.26911 0.06392 0.23328 0.0
Zn3 Zn 0.308 0.00257 0.20923 0.0
O4 O 0.31738 0.00773 0.13964 0.0
C5 C 0.217 0.94246 0.22413 0.0
O6 O 0.19539 0.98784 0.22383 0.0
O7 O 0.37775 -0.00468 0.23973 0.0
C8 C 0.27854 0.01754 0.11392 0.0
O9 O 0.23372 0.02598 0.13316 0.0
C10 C 0.27217 0.10909 0.21689 0.0
O11 O 0.30565 0.1199 0.18411 0.0
O12 O 0.26544 0.93875 0.21927 0.0
C13 C -0.00715 0.40662 0.71107 0.0
O14 O 0.95065 0.39122 0.68961 0.0
O15 O 0.95536 0.27268 0.72876 0.0
Zn16 Zn 0.01861 0.30266 0.69815 0.0
O17 O 0.01087 0.30628 0.62755 0.0
C18 C 0.08053 0.21377 0.72175 0.0
O19 O 0.03825 0.18848 0.71143 0.0
O20 O 0.02803 0.37451 0.72053 0.0
C21 C 0.02095 0.26913 0.6005 0.0
O22 O 0.03703 0.22562 0.61824 0.0
C23 C 0.92867 0.23775 0.70928 0.0
O24 O 0.9402 0.22233 0.66691 0.0
O25 O 0.08165 0.26219 0.71741 0.0
C26 C 0.6311 0.01369 0.24493 0.0
O27 O 0.66294 0.01634 0.28088 0.0
O28 O 0.75767 0.94553 0.20699 0.0
Zn29 Zn 0.72197 0.0089 0.18369 0.0
O30 O 0.72199 0.01059 0.11331 0.0
C31 C 0.80994 0.06899 0.20068 0.0
O32 O 0.83073 0.02782 0.18265 0.0
O33 O 0.64829 0.01009 0.20354 0.0
C34 C 0.75704 -0.01022 0.08927 0.0
O35 O 0.79515 0.96571 0.11013 0.0
C36 C 0.74557 0.90004 0.19576 0.0
O37 O 0.70544 0.8913 0.1686 0.0
O38 O 0.76152 0.07058 0.2065 0.0
C39 C 0.01407 0.62495 0.72729 0.0
O40 O 0.01371 0.6534 0.76522 0.0
O41 O 0.08568 0.74931 0.70859 0.0
Zn42 Zn 0.023 0.72074 0.67527 0.0
O43 O 0.02853 0.72863 0.60501 0.0
C44 C 0.95754 0.80308 0.70529 0.0
O45 O 2e-05 0.82953 0.69975 0.0
O46 O 0.01817 0.64563 0.68719 0.0
C47 C 0.00744 0.76433 0.58145 0.0
O48 O 0.98184 0.80051 0.60283 0.0
C49 C 0.10768 0.78934 0.69319 0.0
O50 O 0.09212 0.80929 0.65324 0.0
O51 O 0.958 0.75503 0.69845 0.0
C52 C 0.40515 0.019 0.75794 0.0
O53 O 0.37372 0.02563 0.72211 0.0
O54 O 0.28345 0.93933 0.79342 0.0
Zn55 Zn 0.31337 0.00687 0.81607 0.0
O56 O 0.31247 0.01337 0.88671 0.0
C57 C 0.23503 0.08389 0.80409 0.0
O58 O 0.22062 0.06711 0.84534 0.0
O59 O 0.38745 0.01016 0.79851 0.0
C60 C 0.27789 -0.00518 0.91297 0.0
O61 O 0.23933 0.96921 0.8945 0.0
C62 C 0.23506 0.9345 0.78808 0.0
O63 O 0.20455 0.97202 0.80024 0.0
O64 O 0.27498 0.06538 0.78519 0.0
C65 C 0.03438 0.39751 0.27459 0.0
O66 O 0.08208 0.38724 0.28694 0.0
O67 O 0.08777 0.27078 0.27492 0.0
Zn68 Zn 0.0204 0.29362 0.30178 0.0
O69 O 0.02813 0.29772 0.37205 0.0
C70 C 0.9522 0.23318 0.24303 0.0
O71 O 0.97291 0.2596 0.20877 0.0
O72 O 0.00047 0.36255 0.27663 0.0
C73 C -0.00481 0.27745 0.39907 0.0
O74 O 0.9545 0.25461 0.38116 0.0
C75 C 0.10318 0.22644 0.28669 0.0
O76 O 0.07611 0.19937 0.3165 0.0
O77 O 0.96614 0.24161 0.28511 0.0
C78 C 0.62398 0.03441 0.77594 0.0
O79 O 0.63758 0.0724 0.80354 0.0
O80 O 0.76605 0.06906 0.76745 0.0
Zn81 Zn 0.72747 0.00832 0.79269 0.0
O82 O 0.72084 0.01272 0.86272 0.0
C83 C 0.78851 0.93914 0.73921 0.0
O84 O 0.77679 0.97052 0.70472 0.0
O85 O 0.65742 0.00185 0.76372 0.0
C86 C 0.76063 0.00443 0.88777 0.0
O87 O 0.80482 -0.0048 0.86758 0.0
C88 C 0.77148 0.11083 0.78962 0.0
O89 O 0.74971 0.11681 0.8306 0.0
O90 O 0.76969 0.94628 0.77955 0.0
C91 C -0.00518 0.61091 0.24093 0.0
O92 O 0.98212 0.63439 0.20173 0.0
O93 O 0.92978 0.73799 0.25508 0.0
Zn94 Zn -0.00528 0.71191 0.2869 0.0
O95 O 0.99053 0.72178 0.35703 0.0
C96 C 0.05919 0.79387 0.25187 0.0
O97 O 0.01599 0.81971 0.25296 0.0
O98 O 0.00112 0.63623 0.27848 0.0
C99 C 0.00922 0.75978 0.37913 0.0
O100 O 0.03147 0.79722 0.35619 0.0
C101 C 0.90772 0.77762 0.27104 0.0
O102 O 0.92698 0.80051 0.30819 0.0
O103 O 0.05909 0.74659 0.26239 0.0
C104 C 0.28744 0.05575 0.03404 0.0
C105 C 0.28187 0.01181 0.0627 0.0
C106 C 0.28219 0.95673 -0.0066 0.0
C107 C 0.28153 0.00098 0.96444 0.0
N108 N 0.27719 0.09307 0.95677 0.0
N109 N 0.26796 0.92089 0.07065 0.0
C110 C 0.28284 0.05071 0.98458 0.0
C111 C 0.27764 0.96235 0.04268 0.0
N112 N 0.29806 0.1021 0.05411 0.0
N113 N 0.28938 0.90948 0.97397 0.0
H114 H 0.26582 0.92316 0.10711 0.0
H115 H 0.25829 0.88491 0.05755 0.0
H116 H 0.29426 0.90388 0.93807 0.0
H117 H 0.29555 0.87644 -0.0063 0.0
H118 H 0.30805 0.13458 0.03499 0.0
H119 H 0.30127 0.10706 0.09029 0.0
H120 H 0.27171 0.12979 0.96991 0.0
H121 H 0.27383 0.09132 0.9204 0.0
C122 C 0.05715 0.26215 0.51976 0.0
C123 C 0.01521 0.27473 0.54904 0.0
C124 C 0.96384 0.29792 0.47975 0.0
C125 C 0.00307 0.27835 0.45056 0.0
N126 N 0.08364 0.23303 0.44334 0.0
N127 N 0.92527 0.29661 0.55662 0.0
C128 C 0.04897 0.25823 0.47064 0.0
C129 C 0.96761 0.29071 0.52905 0.0
N130 N 0.10526 0.25558 0.53862 0.0
N131 N 0.92379 0.32488 0.46059 0.0
H132 H 0.92577 0.29063 0.59276 0.0
H133 H 0.88843 0.30272 0.54303 0.0
H134 H 0.92038 0.33216 0.4247 0.0
H135 H 0.89694 0.34444 0.48066 0.0
H136 H 0.13811 0.25143 0.51829 0.0
H137 H 0.11327 0.25973 0.57433 0.0
H138 H 0.11496 0.21297 0.45709 0.0
H139 H 0.07847 0.22767 0.40742 0.0
C140 C 0.78481 0.03873 0.96673 0.0
C141 C 0.75706 0.00253 0.93938 0.0
C142 C 0.72444 0.96184 0.01076 0.0
C143 C 0.7562 -0.00518 0.03784 0.0
N144 N 0.81993 0.06187 0.04294 0.0
N145 N 0.70591 0.92543 0.93432 0.0
C146 C 0.78743 0.03247 0.0162 0.0
C147 C 0.72794 0.96313 0.96107 0.0
N148 N 0.8069 0.0802 0.94549 0.0
N149 N 0.69079 0.92947 0.03258 0.0
H150 H 0.70781 0.92472 0.89781 0.0
H151 H 0.68921 0.89257 0.94828 0.0
H152 H 0.68865 0.926 0.06897 0.0
H153 H 0.66245 0.90872 0.01487 0.0
H154 H 0.82313 0.11079 0.96372 0.0
H155 H 0.80502 0.08635 0.90939 0.0
H156 H 0.84805 0.08573 0.02896 0.0
H157 H 0.82109 0.06013 0.0795 0.0
C158 C 0.05584 0.75954 0.45626 0.0
C159 C 0.00861 0.7603 0.43091 0.0
C160 C 0.96099 0.7573 0.50454 0.0
C161 C 0.00805 0.7627 0.52972 0.0
N162 N 0.09993 0.77642 0.52975 0.0
N163 N 0.91597 0.76705 0.43041 0.0
C164 C 0.05545 0.76587 0.50566 0.0
C165 C 0.96104 0.76111 0.45489 0.0
N166 N 0.1009 0.75025 0.43345 0.0
N167 N 0.91659 0.74616 0.52788 0.0
H168 H 0.91429 0.76945 0.39397 0.0
H169 H 0.88073 0.77386 0.44635 0.0
H170 H 0.91518 0.74157 0.56417 0.0
H171 H 0.88223 0.73644 0.51102 0.0
H172 H 0.13585 0.74405 0.45069 0.0
H173 H 0.10251 0.74339 0.39752 0.0
H174 H 0.1346 0.785 0.51341 0.0
H175 H 0.10134 0.78094 0.56603 0.0
C176 C 0.49376 0.058 0.26493 0.0
C177 C 0.46701 0.01837 0.24101 0.0
C178 C 0.54694 0.96934 0.23564 0.0
C179 C 0.57475 0.01272 0.25154 0.0
N180 N 0.57574 0.09951 0.28025 0.0
N181 N 0.46853 0.93753 0.1998 0.0
C182 C 0.54848 0.05716 0.26673 0.0
C183 C 0.49346 0.97385 0.22603 0.0
N184 N 0.46667 0.09609 0.28625 0.0
N185 N 0.57186 0.92377 0.22993 0.0
H186 H 0.42953 0.93934 0.19119 0.0
H187 H 0.48741 0.90752 0.18326 0.0
H188 H 0.61107 0.91934 0.23717 0.0
H189 H 0.55292 0.88947 0.22271 0.0
H190 H 0.48353 0.12349 0.30799 0.0
H191 H 0.42651 0.09737 0.28576 0.0
H192 H 0.55893 0.13502 0.28624 0.0
H193 H 0.61578 0.10011 0.28273 0.0
C194 C 0.04377 0.48726 0.69977 0.0
C195 C 0.00115 0.46172 0.72014 0.0
C196 C 0.96789 0.54354 0.74868 0.0
C197 C 0.0119 0.56852 0.73032 0.0
N198 N 0.098 0.56268 0.70003 0.0
N199 N 0.92926 0.46332 0.77302 0.0
C200 C 0.05189 0.53981 0.70962 0.0
C201 C 0.96521 0.4892 0.74746 0.0
N202 N 0.0747 0.4624 0.66867 0.0
N203 N 0.92748 0.5716 0.76494 0.0
H204 H 0.92664 0.42346 0.77336 0.0
H205 H 0.90539 0.48097 0.79725 0.0
H206 H 0.92777 0.61146 0.76638 0.0
H207 H 0.89207 0.55557 0.77361 0.0
H208 H 0.10274 0.48097 0.649 0.0
H209 H 0.06928 0.42435 0.65888 0.0
H210 H 0.13026 0.54243 0.68916 0.0
H211 H 0.1056 0.60101 0.7077 0.0
C212 C 0.54311 0.98165 0.777 0.0
C213 C 0.56913 0.02713 0.76339 0.0
C214 C 0.48719 0.06582 0.7393 0.0
C215 C 0.46156 0.01991 0.75203 0.0
N216 N 0.46614 0.92979 0.76934 0.0
N217 N 0.56833 0.10688 0.72072 0.0
C218 C 0.49001 0.97634 0.76627 0.0
C219 C 0.54187 0.06746 0.74097 0.0
N220 N 0.56786 0.94509 0.80312 0.0
N221 N 0.45945 0.10865 0.72829 0.0
H222 H 0.60846 0.1088 0.72087 0.0
H223 H 0.55088 0.13488 0.69999 0.0
H224 H 0.41938 0.109 0.72631 0.0
H225 H 0.47599 0.14473 0.72426 0.0
H226 H 0.54893 0.91411 0.81831 0.0
H227 H 0.60628 0.94787 0.81357 0.0
H228 H 0.48591 0.89569 0.77522 0.0
H229 H 0.42725 0.92467 0.76104 0.0
C230 C 0.98226 0.47676 0.28827 0.0
C231 C 0.01978 0.45043 0.26169 0.0
C232 C 0.03848 0.52897 0.21772 0.0
C233 C -0.00053 0.55454 0.24303 0.0
N234 N 0.92504 0.54956 0.29267 0.0
N235 N 0.07459 0.44765 0.19394 0.0
C236 C 0.96837 0.52729 0.27518 0.0
C237 C 0.04512 0.47538 0.22411 0.0
N238 N 0.96218 0.45494 0.32775 0.0
N239 N 0.07094 0.55614 0.18953 0.0
H240 H 0.07967 0.40819 0.19724 0.0
H241 H 0.08985 0.46275 0.16321 0.0
H242 H 0.06734 0.59539 0.18377 0.0
H243 H 0.10379 0.54051 0.17462 0.0
H244 H 0.93909 0.4748 0.35118 0.0
H245 H 0.97233 0.41861 0.33978 0.0
H246 H 0.89813 0.52977 0.31267 0.0
H247 H 0.91323 0.58631 0.28307 0.0
C248 C 0.19206 0.19113 0.2974 0.0
C249 C 0.15073 0.2045 0.26681 0.0
C250 C 0.19387 0.16266 0.20103 0.0
C251 C 0.23424 0.14772 0.23205 0.0
N252 N 0.27834 0.1562 0.30611 0.0
N253 N 0.11542 0.21113 0.18836 0.0
C254 C 0.23527 0.16459 0.27924 0.0
C255 C 0.15292 0.19328 0.21814 0.0
N256 N 0.18954 0.20341 0.34395 0.0
N257 N 0.19303 0.14486 0.15593 0.0
H258 H 0.08251 0.22996 0.19963 0.0
H259 H 0.11804 0.21005 0.15198 0.0
H260 H 0.22326 0.12453 0.14128 0.0
H261 H 0.16152 0.14793 0.13334 0.0
H262 H 0.21477 0.18947 0.36944 0.0
H263 H 0.16082 0.2267 0.35764 0.0
H264 H 0.28398 0.17106 0.33958 0.0
H265 H 0.31075 0.13746 0.29333 0.0
C266 C 0.83552 0.21452 0.7171 0.0
C267 C 0.88671 0.21177 0.73487 0.0
C268 C 0.86126 0.14494 0.79046 0.0
C269 C 0.81001 0.14821 0.77322 0.0
N270 N 0.74555 0.19103 0.7266 0.0
N271 N 0.94629 0.18262 0.79487 0.0
C272 C 0.79625 0.18465 0.7385 0.0
C273 C 0.89885 0.17989 0.77383 0.0
N274 N 0.82474 0.24521 0.67936 0.0
N275 N 0.87467 0.10654 0.82088 0.0
H276 H 0.97586 0.20609 0.78305 0.0
H277 H 0.95521 0.16474 0.82658 0.0
H278 H 0.84821 0.08043 0.83425 0.0
H279 H 0.91252 0.09787 0.8301 0.0
H280 H 0.78997 0.24449 0.66099 0.0
H281 H 0.85161 0.27039 0.66504 0.0
H282 H 0.73203 0.22014 0.70482 0.0
H283 H 0.71614 0.16923 0.7414 0.0
C284 C 0.86131 0.81414 0.20044 0.0
C285 C 0.86091 0.79895 0.24834 0.0
C286 C 0.77844 0.84251 0.25935 0.0
C287 C 0.77917 0.85783 0.21171 0.0
N288 N 0.8122 0.84604 0.13384 0.0
N289 N 0.81267 0.78558 0.31918 0.0
C290 C 0.81747 0.83922 0.18116 0.0
C291 C 0.81731 0.80902 0.2765 0.0
N292 N 0.90471 0.80824 0.17422 0.0
N293 N 0.74133 0.86104 0.2884 0.0
H294 H 0.83975 0.75949 0.33197 0.0
H295 H 0.7798 0.78787 0.33968 0.0
H296 H 0.71063 0.88328 0.27626 0.0
H297 H 0.74231 0.85648 0.32469 0.0
H298 H 0.90909 0.82425 0.14101 0.0
H299 H 0.9382 0.79104 0.18684 0.0
H300 H 0.83649 0.82923 0.10945 0.0
H301 H 0.78041 0.86417 0.11872 0.0
C302 C 0.19224 0.83467 0.69895 0.0
C303 C 0.14713 0.81679 0.7215 0.0
C304 C 0.17392 0.86151 0.79306 0.0
C305 C 0.21205 0.88782 0.76736 0.0
N306 N 0.25634 0.90179 0.69426 0.0
N307 N 0.09216 0.81799 0.78996 0.0
C308 C 0.22163 0.87452 0.72003 0.0
C309 C 0.13749 0.83066 0.76887 0.0
N310 N 0.20718 0.81315 0.65762 0.0
N311 N 0.17273 0.86592 0.84076 0.0
H312 H 0.06325 0.7965 0.77401 0.0
H313 H 0.08114 0.83282 0.82225 0.0
H314 H 0.20003 0.88719 0.85938 0.0
H315 H 0.14871 0.84394 0.8619 0.0
H316 H 0.24214 0.82147 0.64167 0.0
H317 H 0.18712 0.78294 0.64195 0.0
H318 H 0.26017 0.89764 0.65813 0.0
H319 H 0.27882 0.93122 0.70821 0.0
C320 C 0.82258 0.86051 0.7001 0.0
C321 C 0.82926 0.90051 0.73309 0.0
C322 C 0.91262 0.86514 0.75646 0.0
C323 C 0.90993 0.83046 0.7184 0.0
N324 N 0.86353 0.79773 0.65074 0.0
N325 N 0.88484 0.94654 0.78693 0.0
C326 C 0.86498 0.82828 0.68956 0.0
C327 C 0.87526 0.90422 0.76005 0.0
N328 N 0.7755 0.85269 0.67954 0.0
N329 N 0.95049 0.86011 0.7897 0.0
H330 H 0.85976 0.97755 0.78871 0.0
H331 H 0.92012 0.95333 0.80347 0.0
H332 H 0.97727 0.83044 0.78902 0.0
H333 H 0.95163 0.88156 0.82047 0.0
H334 H 0.76681 0.82085 0.659 0.0
H335 H 0.74368 0.87568 0.68646 0.0
H336 H 0.83455 0.79977 0.62532 0.0
H337 H 0.89286 0.7726 0.64199 0.0
C338 C 0.14629 0.88786 0.19103 0.0
C339 C 0.18402 0.89624 0.2266 0.0
C340 C 0.14751 0.82675 0.27383 0.0
C341 C 0.10745 0.82118 0.23988 0.0
N342 N 0.07618 0.83494 0.16132 0.0
N343 N 0.22827 0.8671 0.29643 0.0
C344 C 0.10928 0.84826 0.19686 0.0
C345 C 0.18739 0.86318 0.26605 0.0
N346 N 0.14558 0.91836 0.15199 0.0
N347 N 0.14576 0.79959 0.3148 0.0
H348 H 0.25653 0.89526 0.29373 0.0
H349 H 0.23638 0.8405 0.32267 0.0
H350 H 0.1199 0.76988 0.32045 0.0
H351 H 0.16878 0.80725 0.344 0.0
H352 H 0.11562 0.91908 0.12755 0.0
H353 H 0.17482 0.94441 0.1445 0.0
H354 H 0.07764 0.84998 0.12755 0.0
H355 H 0.04966 0.80509 0.1645 0.0
C356 C 0.14696 0.1456 0.71268 0.0
C357 C 0.12587 0.18562 0.73988 0.0
C358 C 0.18771 0.16686 0.80284 0.0
C359 C 0.20234 0.12161 0.77908 0.0
N360 N 0.1909 0.06427 0.71307 0.0
N361 N 0.12184 0.2309 0.81363 0.0
C362 C 0.18117 0.11016 0.73415 0.0
C363 C 0.14541 0.19581 0.78557 0.0
N364 N 0.13508 0.14203 0.66602 0.0
N365 N 0.21485 0.18259 0.84152 0.0
H366 H 0.09009 0.25239 0.80289 0.0
H367 H 0.13095 0.23549 0.84903 0.0
H368 H 0.24686 0.16284 0.85444 0.0
H369 H 0.20903 0.21781 0.85768 0.0
H370 H 0.15333 0.11679 0.64336 0.0
H371 H 0.11096 0.16803 0.64896 0.0
H372 H 0.17128 0.05171 0.6832 0.0
H373 H 0.21527 0.03658 0.7272 0.0
C374 C 0.86881 0.20262 0.20731 0.0
C375 C 0.91473 0.1918 0.23274 0.0
C376 C 0.88599 0.10345 0.24445 0.0
C377 C 0.84347 0.11249 0.2141 0.0
N378 N 0.79922 0.16855 0.15966 0.0
N379 N 0.97221 0.12894 0.26659 0.0
C380 C 0.83594 0.16157 0.1937 0.0
C381 C 0.92474 0.14141 0.24903 0.0
N382 N 0.85566 0.25214 0.19745 0.0
N383 N 0.88875 0.05911 0.2699 0.0
H384 H 0.00261 0.15495 0.26818 0.0
H385 H 0.98308 0.09155 0.27462 0.0
H386 H 0.86031 0.03089 0.26847 0.0
H387 H 0.91637 0.05281 0.29599 0.0
H388 H 0.82005 0.26249 0.18332 0.0
H389 H 0.87829 0.28335 0.20745 0.0
H390 H 0.79599 0.20208 0.14003 0.0
H391 H 0.77494 0.13935 0.14792 0.0
loop_
_geom_bond_atom_site_label_1
_geom_bond_atom_site_label_2
_geom_bond_distance
_geom_bond_site_symmetry_2
_ccdc_geom_bond_type
C0 O1 1.160 . S
C0 O7 1.185 . S
O1 C0 1.160 . S
O2 Zn3 1.899 . S
O2 C10 1.284 . S
Zn3 O2 1.899 . S
Zn3 O4 2.032 . S
Zn3 O7 2.086 . S
Zn3 O12 1.977 1_545 S
O4 Zn3 2.032 . S
O4 C8 1.278 . S
C5 O6 1.203 . S
C5 O12 1.267 . S
O6 C5 1.203 . S
O7 C0 1.185 . S
O7 Zn3 2.086 . S
C8 O4 1.278 . S
C8 O9 1.211 1_545 S
O9 C8 1.211 1_565 S
C10 O2 1.284 . S
C10 O11 1.273 . S
O11 C10 1.273 . S
O12 Zn3 1.977 1_565 S
O12 C5 1.267 . S
C13 O14 1.160 1_455 S
C13 O20 1.185 . S
O14 C13 1.160 1_655 S
O15 Zn16 1.899 1_655 S
O15 C23 1.284 . S
Zn16 O15 1.899 1_455 S
Zn16 O17 2.032 . S
Zn16 O20 2.086 . S
Zn16 O25 1.977 . S
O17 Zn16 2.032 . S
O17 C21 1.278 . S
C18 O19 1.203 . S
C18 O25 1.267 . S
O19 C18 1.203 . S
O20 C13 1.185 . S
O20 Zn16 2.086 . S
C21 O17 1.278 . S
C21 O22 1.211 . S
O22 C21 1.211 . S
C23 O15 1.284 . S
C23 O24 1.273 . S
O24 C23 1.273 . S
O25 Zn16 1.977 . S
O25 C18 1.267 . S
C26 O27 1.160 1_545 S
C26 O33 1.185 . S
O27 C26 1.160 1_565 S
O28 Zn29 1.899 1_565 S
O28 C36 1.284 . S
Zn29 O28 1.899 1_545 S
Zn29 O30 2.032 . S
Zn29 O33 2.086 . S
Zn29 O38 1.977 . S
O30 Zn29 2.032 . S
O30 C34 1.278 . S
C31 O32 1.203 . S
C31 O38 1.267 . S
O32 C31 1.203 . S
O33 C26 1.185 . S
O33 Zn29 2.086 . S
C34 O30 1.278 . S
C34 O35 1.211 . S
O35 C34 1.211 . S
C36 O28 1.284 . S
C36 O37 1.273 . S
O37 C36 1.273 . S
O38 Zn29 1.977 . S
O38 C31 1.267 . S
C39 O40 1.160 . S
C39 O46 1.185 . S
O40 C39 1.160 . S
O41 Zn42 1.899 . S
O41 C49 1.284 . S
Zn42 O41 1.899 . S
Zn42 O43 2.032 . S
Zn42 O46 2.086 . S
Zn42 O51 1.977 1_455 S
O43 Zn42 2.032 . S
O43 C47 1.278 . S
C44 O45 1.203 . S
C44 O51 1.267 . S
O45 C44 1.203 . S
O46 C39 1.185 . S
O46 Zn42 2.086 . S
C47 O43 1.278 . S
C47 O48 1.211 1_455 S
O48 C47 1.211 1_655 S
C49 O41 1.284 . S
C49 O50 1.273 . S
O50 C49 1.273 . S
O51 Zn42 1.977 1_655 S
O51 C44 1.267 . S
C52 O53 1.160 1_545 S
C52 O59 1.185 . S
O53 C52 1.160 1_565 S
O54 Zn55 1.899 1_565 S
O54 C62 1.284 . S
Zn55 O54 1.899 1_545 S
Zn55 O56 2.032 . S
Zn55 O59 2.086 . S
Zn55 O64 1.977 . S
O56 Zn55 2.032 . S
O56 C60 1.278 . S
C57 O58 1.203 . S
C57 O64 1.267 . S
O58 C57 1.203 . S
O59 C52 1.185 . S
O59 Zn55 2.086 . S
C60 O56 1.278 . S
C60 O61 1.211 . S
O61 C60 1.211 . S
C62 O54 1.284 . S
C62 O63 1.273 . S
O63 C62 1.273 . S
O64 Zn55 1.977 . S
O64 C57 1.267 . S
C65 O66 1.160 . S
C65 O72 1.185 . S
O66 C65 1.160 . S
O67 Zn68 1.899 . S
O67 C75 1.284 . S
Zn68 O67 1.899 . S
Zn68 O69 2.032 . S
Zn68 O72 2.086 . S
Zn68 O77 1.977 1_455 S
O69 Zn68 2.032 . S
O69 C73 1.278 . S
C70 O71 1.203 . S
C70 O77 1.267 . S
O71 C70 1.203 . S
O72 C65 1.185 . S
O72 Zn68 2.086 . S
C73 O69 1.278 . S
C73 O74 1.211 1_455 S
O74 C73 1.211 1_655 S
C75 O67 1.284 . S
C75 O76 1.273 . S
O76 C75 1.273 . S
O77 Zn68 1.977 1_655 S
O77 C70 1.267 . S
C78 O79 1.160 . S
C78 O85 1.185 . S
O79 C78 1.160 . S
O80 Zn81 1.899 . S
O80 C88 1.284 . S
Zn81 O80 1.899 . S
Zn81 O82 2.032 . S
Zn81 O85 2.086 . S
Zn81 O90 1.977 1_545 S
O82 Zn81 2.032 . S
O82 C86 1.278 . S
C83 O84 1.203 . S
C83 O90 1.267 . S
O84 C83 1.203 . S
O85 C78 1.185 . S
O85 Zn81 2.086 . S
C86 O82 1.278 . S
C86 O87 1.211 1_545 S
O87 C86 1.211 1_565 S
C88 O80 1.284 . S
C88 O89 1.273 . S
O89 C88 1.273 . S
O90 Zn81 1.977 1_565 S
O90 C83 1.267 . S
C91 O92 1.160 1_455 S
C91 O98 1.185 . S
O92 C91 1.160 1_655 S
O93 Zn94 1.899 1_655 S
O93 C101 1.284 . S
Zn94 O93 1.899 1_455 S
Zn94 O95 2.032 . S
Zn94 O98 2.086 . S
Zn94 O103 1.977 . S
O95 Zn94 2.032 . S
O95 C99 1.278 . S
C96 O97 1.203 . S
C96 O103 1.267 . S
O97 C96 1.203 . S
O98 C91 1.185 . S
O98 Zn94 2.086 . S
C99 O95 1.278 . S
C99 O100 1.211 . S
O100 C99 1.211 . S
C101 O93 1.284 . S
C101 O102 1.273 . S
O102 C101 1.273 . S
O103 Zn94 1.977 . S
O103 C96 1.267 . S
C104 C105 1.363 . S
C104 C110 1.379 1_554 S
C104 N112 1.356 . S
C105 C104 1.363 . S
C105 C111 1.363 1_545 S
C106 C107 1.363 1_565 S
C106 C111 1.379 1_556 S
C106 N113 1.356 . S
C107 C106 1.363 1_545 S
C107 C110 1.363 . S
N108 C110 1.356 . S
N108 H120 0.984 . S
N108 H121 0.985 . S
N109 C111 1.356 . S
N109 H114 0.984 . S
N109 H115 0.985 . S
C110 C104 1.379 1_556 S
C110 C107 1.363 . S
C110 N108 1.356 . S
C111 C105 1.363 1_565 S
C111 C106 1.379 1_554 S
C111 N109 1.356 . S
N112 C104 1.356 . S
N112 H118 0.984 . S
N112 H119 0.984 . S
N113 C106 1.356 . S
N113 H116 0.984 . S
N113 H117 0.985 . S
H114 N109 0.984 . S
H115 N109 0.985 . S
H116 N113 0.984 . S
H117 N113 0.985 . S
H118 N112 0.984 . S
H119 N112 0.984 . S
H120 N108 0.984 . S
H121 N108 0.985 . S
C122 C123 1.363 . S
C122 C128 1.379 . S
C122 N130 1.356 . S
C123 C122 1.363 . S
C123 C129 1.363 1_455 S
C124 C125 1.363 1_655 S
C124 C129 1.379 . S
C124 N131 1.356 . S
C125 C124 1.363 1_455 S
C125 C128 1.363 . S
N126 C128 1.356 . S
N126 H138 0.984 . S
N126 H139 0.985 . S
N127 C129 1.356 . S
N127 H132 0.984 . S
N127 H133 0.985 . S
C128 C122 1.379 . S
C128 C125 1.363 . S
C128 N126 1.356 . S
C129 C123 1.363 1_655 S
C129 C124 1.379 . S
C129 N127 1.356 . S
N130 C122 1.356 . S
N130 H136 0.984 . S
N130 H137 0.984 . S
N131 C124 1.356 . S
N131 H134 0.984 . S
N131 H135 0.985 . S
H132 N127 0.984 . S
H133 N127 0.985 . S
H134 N131 0.984 . S
H135 N131 0.985 . S
H136 N130 0.984 . S
H137 N130 0.984 . S
H138 N126 0.984 . S
H139 N126 0.985 . S
C140 C141 1.363 . S
C140 C146 1.379 1_556 S
C140 N148 1.356 . S
C141 C140 1.363 . S
C141 C147 1.363 1_545 S
C142 C143 1.363 1_565 S
C142 C147 1.379 1_554 S
C142 N149 1.356 . S
C143 C142 1.363 1_545 S
C143 C146 1.363 . S
N144 C146 1.356 . S
N144 H156 0.984 . S
N144 H157 0.985 . S
N145 C147 1.356 . S
N145 H150 0.984 . S
N145 H151 0.985 . S
C146 C140 1.379 1_554 S
C146 C143 1.363 . S
C146 N144 1.356 . S
C147 C141 1.363 1_565 S
C147 C142 1.379 1_556 S
C147 N145 1.356 . S
N148 C140 1.356 . S
N148 H154 0.984 . S
N148 H155 0.984 . S
N149 C142 1.356 . S
N149 H152 0.984 . S
N149 H153 0.985 . S
H150 N145 0.984 . S
H151 N145 0.985 . S
H152 N149 0.984 . S
H153 N149 0.985 . S
H154 N148 0.984 . S
H155 N148 0.984 . S
H156 N144 0.984 . S
H157 N144 0.985 . S
C158 C159 1.363 . S
C158 C164 1.379 . S
C158 N166 1.356 . S
C159 C158 1.363 . S
C159 C165 1.363 1_455 S
C160 C161 1.363 1_655 S
C160 C165 1.379 . S
C160 N167 1.356 . S
C161 C160 1.363 1_455 S
C161 C164 1.363 . S
N162 C164 1.356 . S
N162 H174 0.984 . S
N162 H175 0.985 . S
N163 C165 1.356 . S
N163 H168 0.984 . S
N163 H169 0.985 . S
C164 C158 1.379 . S
C164 C161 1.363 . S
C164 N162 1.356 . S
C165 C159 1.363 1_655 S
C165 C160 1.379 . S
C165 N163 1.356 . S
N166 C158 1.356 . S
N166 H172 0.984 . S
N166 H173 0.984 . S
N167 C160 1.356 . S
N167 H170 0.984 . S
N167 H171 0.985 . S
H168 N163 0.984 . S
H169 N163 0.985 . S
H170 N167 0.984 . S
H171 N167 0.985 . S
H172 N166 0.984 . S
H173 N166 0.984 . S
H174 N162 0.984 . S
H175 N162 0.985 . S
C176 C177 1.363 . S
C176 C182 1.379 . S
C176 N184 1.356 . S
C177 C176 1.363 . S
C177 C183 1.363 1_545 S
C178 C179 1.363 1_565 S
C178 C183 1.379 . S
C178 N185 1.356 . S
C179 C178 1.363 1_545 S
C179 C182 1.363 . S
N180 C182 1.356 . S
N180 H192 0.984 . S
N180 H193 0.985 . S
N181 C183 1.356 . S
N181 H186 0.984 . S
N181 H187 0.985 . S
C182 C176 1.379 . S
C182 C179 1.363 . S
C182 N180 1.356 . S
C183 C177 1.363 1_565 S
C183 C178 1.379 . S
C183 N181 1.356 . S
N184 C176 1.356 . S
N184 H190 0.984 . S
N184 H191 0.984 . S
N185 C178 1.356 . S
N185 H188 0.984 . S
N185 H189 0.985 . S
H186 N181 0.984 . S
H187 N181 0.985 . S
H188 N185 0.984 . S
H189 N185 0.985 . S
H190 N184 0.984 . S
H191 N184 0.984 . S
H192 N180 0.984 . S
H193 N180 0.985 . S
C194 C195 1.363 . S
C194 C200 1.379 . S
C194 N202 1.356 . S
C195 C194 1.363 . S
C195 C201 1.363 1_455 S
C196 C197 1.363 1_655 S
C196 C201 1.379 . S
C196 N203 1.356 . S
C197 C196 1.363 1_455 S
C197 C200 1.363 . S
N198 C200 1.356 . S
N198 H210 0.984 . S
N198 H211 0.985 . S
N199 C201 1.356 . S
N199 H204 0.984 . S
N199 H205 0.985 . S
C200 C194 1.379 . S
C200 C197 1.363 . S
C200 N198 1.356 . S
C201 C195 1.363 1_655 S
C201 C196 1.379 . S
C201 N199 1.356 . S
N202 C194 1.356 . S
N202 H208 0.984 . S
N202 H209 0.984 . S
N203 C196 1.356 . S
N203 H206 0.984 . S
N203 H207 0.985 . S
H204 N199 0.984 . S
H205 N199 0.985 . S
H206 N203 0.984 . S
H207 N203 0.985 . S
H208 N202 0.984 . S
H209 N202 0.984 . S
H210 N198 0.984 . S
H211 N198 0.985 . S
C212 C213 1.363 1_565 S
C212 C218 1.379 . S
C212 N220 1.356 . S
C213 C212 1.363 1_545 S
C213 C219 1.363 . S
C214 C215 1.363 . S
C214 C219 1.379 . S
C214 N221 1.356 . S
C215 C214 1.363 . S
C215 C218 1.363 1_545 S
N216 C218 1.356 . S
N216 H228 0.984 . S
N216 H229 0.985 . S
N217 C219 1.356 . S
N217 H222 0.984 . S
N217 H223 0.985 . S
C218 C212 1.379 . S
C218 C215 1.363 1_565 S
C218 N216 1.356 . S
C219 C213 1.363 . S
C219 C214 1.379 . S
C219 N217 1.356 . S
N220 C212 1.356 . S
N220 H226 0.984 . S
N220 H227 0.984 . S
N221 C214 1.356 . S
N221 H224 0.984 . S
N221 H225 0.985 . S
H222 N217 0.984 . S
H223 N217 0.985 . S
H224 N221 0.984 . S
H225 N221 0.985 . S
H226 N220 0.984 . S
H227 N220 0.984 . S
H228 N216 0.984 . S
H229 N216 0.985 . S
C230 C231 1.363 1_655 S
C230 C236 1.379 . S
C230 N238 1.356 . S
C231 C230 1.363 1_455 S
C231 C237 1.363 . S
C232 C233 1.363 . S
C232 C237 1.379 . S
C232 N239 1.356 . S
C233 C232 1.363 . S
C233 C236 1.363 1_455 S
N234 C236 1.356 . S
N234 H246 0.984 . S
N234 H247 0.985 . S
N235 C237 1.356 . S
N235 H240 0.984 . S
N235 H241 0.985 . S
C236 C230 1.379 . S
C236 C233 1.363 1_655 S
C236 N234 1.356 . S
C237 C231 1.363 . S
C237 C232 1.379 . S
C237 N235 1.356 . S
N238 C230 1.356 . S
N238 H244 0.984 . S
N238 H245 0.984 . S
N239 C232 1.356 . S
N239 H242 0.984 . S
N239 H243 0.985 . S
H240 N235 0.984 . S
H241 N235 0.985 . S
H242 N239 0.984 . S
H243 N239 0.985 . S
H244 N238 0.984 . S
H245 N238 0.984 . S
H246 N234 0.984 . S
H247 N234 0.985 . S
C248 C249 1.363 . S
C248 C254 1.379 . S
C248 N256 1.356 . S
C249 C248 1.363 . S
C249 C255 1.363 . S
C250 C251 1.363 . S
C250 C255 1.379 . S
C250 N257 1.356 . S
C251 C250 1.363 . S
C251 C254 1.363 . S
N252 C254 1.356 . S
N252 H264 0.984 . S
N252 H265 0.985 . S
N253 C255 1.356 . S
N253 H258 0.984 . S
N253 H259 0.985 . S
C254 C248 1.379 . S
C254 C251 1.363 . S
C254 N252 1.356 . S
C255 C249 1.363 . S
C255 C250 1.379 . S
C255 N253 1.356 . S
N256 C248 1.356 . S
N256 H262 0.984 . S
N256 H263 0.984 . S
N257 C250 1.356 . S
N257 H260 0.984 . S
N257 H261 0.985 . S
H258 N253 0.984 . S
H259 N253 0.985 . S
H260 N257 0.984 . S
H261 N257 0.985 . S
H262 N256 0.984 . S
H263 N256 0.984 . S
H264 N252 0.984 . S
H265 N252 0.985 . S
C266 C267 1.363 . S
C266 C272 1.379 . S
C266 N274 1.356 . S
C267 C266 1.363 . S
C267 C273 1.363 . S
C268 C269 1.363 . S
C268 C273 1.379 . S
C268 N275 1.356 . S
C269 C268 1.363 . S
C269 C272 1.363 . S
N270 C272 1.356 . S
N270 H282 0.984 . S
N270 H283 0.985 . S
N271 C273 1.356 . S
N271 H276 0.984 . S
N271 H277 0.985 . S
C272 C266 1.379 . S
C272 C269 1.363 . S
C272 N270 1.356 . S
C273 C267 1.363 . S
C273 C268 1.379 . S
C273 N271 1.356 . S
N274 C266 1.356 . S
N274 H280 0.984 . S
N274 H281 0.984 . S
N275 C268 1.356 . S
N275 H278 0.984 . S
N275 H279 0.985 . S
H276 N271 0.984 . S
H277 N271 0.985 . S
H278 N275 0.984 . S
H279 N275 0.985 . S
H280 N274 0.984 . S
H281 N274 0.984 . S
H282 N270 0.984 . S
H283 N270 0.985 . S
C284 C285 1.363 . S
C284 C290 1.379 . S
C284 N292 1.356 . S
C285 C284 1.363 . S
C285 C291 1.363 . S
C286 C287 1.363 . S
C286 C291 1.379 . S
C286 N293 1.356 . S
C287 C286 1.363 . S
C287 C290 1.363 . S
N288 C290 1.356 . S
N288 H300 0.984 . S
N288 H301 0.985 . S
N289 C291 1.356 . S
N289 H294 0.984 . S
N289 H295 0.985 . S
C290 C284 1.379 . S
C290 C287 1.363 . S
C290 N288 1.356 . S
C291 C285 1.363 . S
C291 C286 1.379 . S
C291 N289 1.356 . S
N292 C284 1.356 . S
N292 H298 0.984 . S
N292 H299 0.984 . S
N293 C286 1.356 . S
N293 H296 0.984 . S
N293 H297 0.985 . S
H294 N289 0.984 . S
H295 N289 0.985 . S
H296 N293 0.984 . S
H297 N293 0.985 . S
H298 N292 0.984 . S
H299 N292 0.984 . S
H300 N288 0.984 . S
H301 N288 0.985 . S
C302 C303 1.363 . S
C302 C308 1.379 . S
C302 N310 1.356 . S
C303 C302 1.363 . S
C303 C309 1.363 . S
C304 C305 1.363 . S
C304 C309 1.379 . S
C304 N311 1.356 . S
C305 C304 1.363 . S
C305 C308 1.363 . S
N306 C308 1.356 . S
N306 H318 0.984 . S
N306 H319 0.985 . S
N307 C309 1.356 . S
N307 H312 0.984 . S
N307 H313 0.985 . S
C308 C302 1.379 . S
C308 C305 1.363 . S
C308 N306 1.356 . S
C309 C303 1.363 . S
C309 C304 1.379 . S
C309 N307 1.356 . S
N310 C302 1.356 . S
N310 H316 0.984 . S
N310 H317 0.984 . S
N311 C304 1.356 . S
N311 H314 0.984 . S
N311 H315 0.985 . S
H312 N307 0.984 . S
H313 N307 0.985 . S
H314 N311 0.984 . S
H315 N311 0.985 . S
H316 N310 0.984 . S
H317 N310 0.984 . S
H318 N306 0.984 . S
H319 N306 0.985 . S
C320 C321 1.363 . S
C320 C326 1.379 . S
C320 N328 1.356 . S
C321 C320 1.363 . S
C321 C327 1.363 . S
C322 C323 1.363 . S
C322 C327 1.379 . S
C322 N329 1.356 . S
C323 C322 1.363 . S
C323 C326 1.363 . S
N324 C326 1.356 . S
N324 H336 0.984 . S
N324 H337 0.985 . S
N325 C327 1.356 . S
N325 H330 0.984 . S
N325 H331 0.985 . S
C326 C320 1.379 . S
C326 C323 1.363 . S
C326 N324 1.356 . S
C327 C321 1.363 . S
C327 C322 1.379 . S
C327 N325 1.356 . S
N328 C320 1.356 . S
N328 H334 0.984 . S
N328 H335 0.984 . S
N329 C322 1.356 . S
N329 H332 0.984 . S
N329 H333 0.985 . S
H330 N325 0.984 . S
H331 N325 0.985 . S
H332 N329 0.984 . S
H333 N329 0.985 . S
H334 N328 0.984 . S
H335 N328 0.984 . S
H336 N324 0.984 . S
H337 N324 0.985 . S
C338 C339 1.363 . S
C338 C344 1.379 . S
C338 N346 1.356 . S
C339 C338 1.363 . S
C339 C345 1.363 . S
C340 C341 1.363 . S
C340 C345 1.379 . S
C340 N347 1.356 . S
C341 C340 1.363 . S
C341 C344 1.363 . S
N342 C344 1.356 . S
N342 H354 0.984 . S
N342 H355 0.985 . S
N343 C345 1.356 . S
N343 H348 0.984 . S
N343 H349 0.985 . S
C344 C338 1.379 . S
C344 C341 1.363 . S
C344 N342 1.356 . S
C345 C339 1.363 . S
C345 C340 1.379 . S
C345 N343 1.356 . S
N346 C338 1.356 . S
N346 H352 0.984 . S
N346 H353 0.984 . S
N347 C340 1.356 . S
N347 H350 0.984 . S
N347 H351 0.985 . S
H348 N343 0.984 . S
H349 N343 0.985 . S
H350 N347 0.984 . S
H351 N347 0.985 . S
H352 N346 0.984 . S
H353 N346 0.984 . S
H354 N342 0.984 . S
H355 N342 0.985 . S
C356 C357 1.363 . S
C356 C362 1.379 . S
C356 N364 1.356 . S
C357 C356 1.363 . S
C357 C363 1.363 . S
C358 C359 1.363 . S
C358 C363 1.379 . S
C358 N365 1.356 . S
C359 C358 1.363 . S
C359 C362 1.363 . S
N360 C362 1.356 . S
N360 H372 0.984 . S
N360 H373 0.985 . S
N361 C363 1.356 . S
N361 H366 0.984 . S
N361 H367 0.985 . S
C362 C356 1.379 . S
C362 C359 1.363 . S
C362 N360 1.356 . S
C363 C357 1.363 . S
C363 C358 1.379 . S
C363 N361 1.356 . S
N364 C356 1.356 . S
N364 H370 0.984 . S
N364 H371 0.984 . S
N365 C358 1.356 . S
N365 H368 0.984 . S
N365 H369 0.985 . S
H366 N361 0.984 . S
H367 N361 0.985 . S
H368 N365 0.984 . S
H369 N365 0.985 . S
H370 N364 0.984 . S
H371 N364 0.984 . S
H372 N360 0.984 . S
H373 N360 0.985 . S
C374 C375 1.363 . S
C374 C380 1.379 . S
C374 N382 1.356 . S
C375 C374 1.363 . S
C375 C381 1.363 . S
C376 C377 1.363 . S
C376 C381 1.379 . S
C376 N383 1.356 . S
C377 C376 1.363 . S
C377 C380 1.363 . S
N378 C380 1.356 . S
N378 H390 0.984 . S
N378 H391 0.985 . S
N379 C381 1.356 . S
N379 H384 0.984 . S
N379 H385 0.985 . S
C380 C374 1.379 . S
C380 C377 1.363 . S
C380 N378 1.356 . S
C381 C375 1.363 . S
C381 C376 1.379 . S
C381 N379 1.356 . S
N382 C374 1.356 . S
N382 H388 0.984 . S
N382 H389 0.984 . S
N383 C376 1.356 . S
N383 H386 0.984 . S
N383 H387 0.985 . S
H384 N379 0.984 . S
H385 N379 0.985 . S
H386 N383 0.984 . S
H387 N383 0.985 . S
H388 N382 0.984 . S
H389 N382 0.984 . S
H390 N378 0.984 . S
H391 N378 0.985 . S
C105 C8 1.512 . S
C107 C60 1.512 . S
C123 C21 1.512 . S
C125 C73 1.512 . S
C141 C86 1.512 . S
C143 C34 1.512 . S
C159 C99 1.512 . S
C161 C47 1.512 . S
C177 C0 1.260 . S
C179 C26 1.260 . S
C195 C13 1.260 . S
C197 C39 1.260 . S
C213 C78 1.260 . S
C215 C52 1.260 . S
C231 C65 1.260 . S
C233 C91 1.260 . S
C249 C75 1.361 . S
C251 C10 1.361 . S
C267 C23 1.361 . S
C269 C88 1.361 . S
C285 C101 1.361 . S
C287 C36 1.361 . S
C303 C49 1.361 . S
C305 C62 1.361 . S
C321 C83 1.275 . S
C323 C44 1.275 . S
C339 C5 1.275 . S
C341 C96 1.275 . S
C357 C18 1.275 . S
C359 C57 1.275 . S
C375 C70 1.275 . S
C377 C31 1.275 . S
