# Generated by pormake.
# Topology dft, (4)-cn, num edge types: 1
# Building blocks:
#     Node 0, Type 0, BuildingBlock: QUQFOY_clean_sbu_1, # of connection points: 4
#     Node 1, Type 0, BuildingBlock: QUQFOY_clean_sbu_1, # of connection points: 4
#     Node 2, Type 0, BuildingBlock: QUQFOY_clean_sbu_1, # of connection points: 4
#     Node 3, Type 0, BuildingBlock: QUQFOY_clean_sbu_1, # of connection points: 4
#     Node 4, Type 0, BuildingBlock: QUQFOY_clean_sbu_1, # of connection points: 4
#     Node 5, Type 0, BuildingBlock: QUQFOY_clean_sbu_1, # of connection points: 4
#     Node 6, Type 0, BuildingBlock: QUQFOY_clean_sbu_1, # of connection points: 4
#     Node 7, Type 0, BuildingBlock: QUQFOY_clean_sbu_1, # of connection points: 4
#     Edge 8, Type (0, 0), BuildingBlock: OJICUG_clean_linker_0, # of connection points: 2
#     Edge 9, Type (0, 0), BuildingBlock: OJICUG_clean_linker_0, # of connection points: 2
#     Edge 10, Type (0, 0), BuildingBlock: OJICUG_clean_linker_0, # of connection points: 2
#     Edge 11, Type (0, 0), BuildingBlock: OJICUG_clean_linker_0, # of connection points: 2
#     Edge 12, Type (0, 0), BuildingBlock: OJICUG_clean_linker_0, # of connection points: 2
#     Edge 13, Type (0, 0), BuildingBlock: OJICUG_clean_linker_0, # of connection points: 2
#     Edge 14, Type (0, 0), BuildingBlock: OJICUG_clean_linker_0, # of connection points: 2
#     Edge 15, Type (0, 0), BuildingBlock: OJICUG_clean_linker_0, # of connection points: 2
#     Edge 16, Type (0, 0), BuildingBlock: OJICUG_clean_linker_0, # of connection points: 2
#     Edge 17, Type (0, 0), BuildingBlock: OJICUG_clean_linker_0, # of connection points: 2
#     Edge 18, Type (0, 0), BuildingBlock: OJICUG_clean_linker_0, # of connection points: 2
#     Edge 19, Type (0, 0), BuildingBlock: OJICUG_clean_linker_0, # of connection points: 2
#     Edge 20, Type (0, 0), BuildingBlock: OJICUG_clean_linker_0, # of connection points: 2
#     Edge 21, Type (0, 0), BuildingBlock: OJICUG_clean_linker_0, # of connection points: 2
#     Edge 22, Type (0, 0), BuildingBlock: OJICUG_clean_linker_0, # of connection points: 2
#     Edge 23, Type (0, 0), BuildingBlock: OJICUG_clean_linker_0, # of connection points: 2
# Relax obj value: 0.221
# Max RMSD: 0.228
# Mean RMSD: 0.228
data_MOF--net-dft--node1-QUQFOY_clean_sbu_1--edge1-OJICUG_clean_linker_0
_symmetry_space_group_name_H-M    P1
_symmetry_Int_Tables_number       1
_symmetry_cell_setting            triclinic
loop_
_symmetry_equiv_pos_as_xyz
'x, y, z'
_cell_length_a     27.140833
_cell_length_b     27.102708
_cell_length_c     30.510933
_cell_angle_alpha  90.107763
_cell_angle_beta   89.83802
_cell_angle_gamma 89.859515
loop_
_atom_site_label
_atom_site_type_symbol
_atom_site_fract_x
_atom_site_fract_y
_atom_site_fract_z
_atom_type_partial_charge
O0 O 0.34045 0.05951 0.08938 0.0
Cd1 Cd 0.34186 0.06923 0.15653 0.0
Cd2 Cd 0.26511 1.00177 0.15577 0.0
O3 O 0.28351 1.00145 0.09063 0.0
O4 O 0.40938 0.09123 0.17188 0.0
O5 O 0.37931 0.01793 0.18982 0.0
C6 C 0.41613 0.04816 0.18889 0.0
C7 C 0.23601 0.92711 0.18375 0.0
C8 C 0.31386 0.02804 0.0697 0.0
C9 C 0.24537 0.10488 0.19147 0.0
O10 O 0.22921 0.06263 0.18066 0.0
O11 O 0.29057 0.11552 0.18592 0.0
O12 O 0.21192 0.95151 0.15475 0.0
O13 O 0.27765 0.94456 0.19686 0.0
O14 O 0.97559 0.345 0.59195 0.0
Cd15 Cd 0.96539 0.34823 0.65901 0.0
Cd16 Cd 0.03388 0.2721 0.66031 0.0
O17 O 0.03472 0.289 0.59492 0.0
O18 O 0.94383 0.4164 0.67354 0.0
O19 O 0.01679 0.38577 0.69189 0.0
C20 C 0.98688 0.42299 0.69047 0.0
C21 C 0.10835 0.2427 0.68849 0.0
C22 C 1.00781 0.31828 0.57312 0.0
C23 C 0.93045 0.25246 0.69516 0.0
O24 O 0.97307 0.23647 0.6851 0.0
O25 O 0.91925 0.29747 0.68883 0.0
O26 O 0.08393 0.21846 0.65963 0.0
O27 O 0.09099 0.28463 0.70148 0.0
O28 O 0.69353 0.97507 0.09086 0.0
Cd29 Cd 0.69073 0.96383 0.15776 0.0
Cd30 Cd 0.76708 0.03178 0.15941 0.0
O31 O 0.74968 0.0338 0.09419 0.0
O32 O 0.62294 0.94145 0.17192 0.0
O33 O 0.65257 0.01438 0.19166 0.0
C34 C 0.6158 0.98417 0.18968 0.0
C35 C 0.79642 0.10566 0.18897 0.0
C36 C 0.72013 1.00738 0.07227 0.0
C37 C 0.78673 0.92768 0.19256 0.0
O38 O 0.80281 0.97028 0.18281 0.0
O39 O 0.74163 0.91701 0.18664 0.0
O40 O 0.82054 0.08177 0.15949 0.0
O41 O 0.75463 0.08814 0.20177 0.0
O42 O 0.06306 0.69684 0.58828 0.0
Cd43 Cd 0.07403 0.69581 0.65526 0.0
Cd44 Cd 1.00682 0.77283 0.65542 0.0
O45 O 1.00469 0.75372 0.59051 0.0
O46 O 0.09564 0.62801 0.67073 0.0
O47 O 0.02298 0.65927 0.6896 0.0
C48 C 0.05279 0.62196 0.6884 0.0
C49 C 0.93304 0.80247 0.68516 0.0
C50 C 0.03094 0.72322 0.56917 0.0
C51 C 0.1106 0.79249 0.68851 0.0
O52 O 0.06825 0.80882 0.67825 0.0
O53 O 0.12095 0.74703 0.68348 0.0
O54 O 0.95649 0.82623 0.65531 0.0
O55 O 0.95095 0.76086 0.69817 0.0
O56 O 0.34372 0.97587 0.86294 0.0
Cd57 Cd 0.34669 0.9668 0.79575 0.0
Cd58 Cd 0.26996 0.03491 0.7959 0.0
O59 O 0.28689 0.03432 0.86126 0.0
O60 O 0.41472 0.9452 0.78095 0.0
O61 O 0.38439 0.01861 0.76337 0.0
C62 C 0.42146 0.98853 0.76448 0.0
C63 C 0.24046 0.10994 0.76879 0.0
C64 C 0.31667 1.00733 0.88243 0.0
C65 C 0.251 0.93202 0.75939 0.0
O66 O 0.23478 0.97439 0.7701 0.0
O67 O 0.29602 0.92093 0.76551 0.0
O68 O 0.21622 0.08487 0.79725 0.0
O69 O 0.28245 0.09295 0.75567 0.0
O70 O 0.06063 0.3409 0.36581 0.0
Cd71 Cd 0.0698 0.34175 0.29858 0.0
Cd72 Cd 1.00292 0.26481 0.30043 0.0
O73 O 1.00293 0.28357 0.36548 0.0
O74 O 0.0913 0.40935 0.28259 0.0
O75 O 0.0181 0.37874 0.26543 0.0
C76 C 0.04808 0.41578 0.2659 0.0
C77 C 0.92829 0.23612 0.2724 0.0
C78 C 0.0295 0.3143 0.38594 0.0
C79 C 0.10559 0.24493 0.26424 0.0
O80 O 0.06357 0.22867 0.27556 0.0
O81 O 0.11601 0.29032 0.26923 0.0
O82 O 0.95238 0.21187 0.3015 0.0
O83 O 0.946 0.27773 0.25929 0.0
O84 O 0.69587 0.06435 0.86631 0.0
Cd85 Cd 0.69447 0.07508 0.79929 0.0
Cd86 Cd 0.7716 1.00775 0.79917 0.0
O87 O 0.7529 1.00611 0.86419 0.0
O88 O 0.62673 0.09692 0.78416 0.0
O89 O 0.65758 0.02404 0.76524 0.0
C90 C 0.62044 0.05403 0.76658 0.0
C91 C 0.80147 0.93379 0.76982 0.0
C92 C 0.72246 0.03245 0.8855 0.0
C93 C 0.7909 0.11156 0.76547 0.0
O94 O 0.80726 0.06919 0.7758 0.0
O95 O 0.74554 0.12195 0.7707 0.0
O96 O 0.82518 0.9576 0.79943 0.0
O97 O 0.75978 0.95141 0.75686 0.0
O98 O 0.97303 0.69299 0.36398 0.0
Cd99 Cd 0.9621 0.69015 0.29704 0.0
Cd100 Cd 0.03049 0.76612 0.29524 0.0
O101 O 0.03192 0.74897 0.36054 0.0
O102 O 0.94004 0.62223 0.28269 0.0
O103 O 0.0129 0.65222 0.2633 0.0
C104 C 0.98284 0.61528 0.2651 0.0
C105 C 0.10466 0.79527 0.26619 0.0
C106 C 1.00533 0.71957 0.38252 0.0
C107 C 0.92678 0.78633 0.26173 0.0
O108 O 0.96945 0.80212 0.27137 0.0
O109 O 0.91571 0.74131 0.26796 0.0
O110 O 0.08053 0.81954 0.29543 0.0
O111 O 0.0872 0.75346 0.25333 0.0
C112 C 0.36092 0.02181 -0.00084 0.0
C113 C 0.31581 0.02337 0.02179 0.0
H114 H 0.39666 0.01359 0.93652 0.0
C115 C 0.27161 0.01886 -0.00155 0.0
H116 H 0.3954 0.02489 0.01674 0.0
C117 C 0.2723 0.01379 0.95306 0.0
C118 C 0.31723 0.01143 0.93037 0.0
H119 H 0.23642 0.02001 0.0153 0.0
H120 H 0.23765 0.01114 0.93566 0.0
C121 C 0.36165 0.01497 0.95363 0.0
C122 C 0.01879 0.2735 0.50306 0.0
C123 C 0.01287 0.31852 0.5252 0.0
H124 H 0.02781 0.23723 0.44122 0.0
C125 C 0.01328 0.36281 0.50138 0.0
H126 H 0.01853 0.23891 0.52083 0.0
C127 C 0.02034 0.36191 0.45587 0.0
C128 C 0.02527 0.31664 0.43382 0.0
H129 H 0.00908 0.39792 0.51802 0.0
H130 H 0.02079 0.3963 0.43783 0.0
C131 C 0.0241 0.27252 0.45769 0.0
C132 C 0.76486 0.02354 0.95664 0.0
C133 C 0.72057 0.02708 0.93331 0.0
H134 H 0.79901 0.01541 0.01928 0.0
C135 C 0.6755 0.02363 0.95581 0.0
H136 H 0.8 0.02612 0.93985 0.0
C137 C 0.67495 0.01575 0.00119 0.0
C138 C 0.71944 0.01305 0.02446 0.0
H139 H 0.64096 0.02593 0.93821 0.0
H140 H 0.63998 0.01278 0.01818 0.0
C141 C 0.76429 0.01742 0.00191 0.0
C142 C 0.01462 0.67479 0.45374 0.0
C143 C 0.01077 0.71917 0.43033 0.0
H144 H 0.02594 0.64125 0.51679 0.0
C145 C 0.01409 0.76426 0.45269 0.0
H146 H 0.0125 0.63965 0.43687 0.0
C147 C 0.02039 0.76516 0.49793 0.0
C148 C 0.02517 0.721 0.5214 0.0
H149 H 0.01122 0.7989 0.43518 0.0
H150 H 0.02222 0.80049 0.51455 0.0
C151 C 0.02268 0.67571 0.49909 0.0
C152 C 0.50481 0.06641 0.20358 0.0
C153 C 0.46632 0.03191 0.20094 0.0
H154 H 0.58275 0.0782 0.2032 0.0
C155 C 0.47769 0.98137 0.20291 0.0
H156 H 0.49715 0.10563 0.20253 0.0
C157 C 0.52679 0.96565 0.20281 0.0
C158 C 0.56532 1.00019 0.20136 0.0
H159 H 0.44886 0.95388 0.2011 0.0
H160 H 0.53448 0.92645 0.20115 0.0
C161 C 0.55389 0.05068 0.2041 0.0
C162 C 0.05408 0.484 0.70386 0.0
C163 C 1.00352 0.47332 0.70183 0.0
H164 H 0.10952 0.53998 0.70146 0.0
C165 C 0.96945 0.51243 0.7037 0.0
H166 H 0.08126 0.45468 0.70264 0.0
C167 C 0.98565 0.56135 0.70351 0.0
C168 C 0.03621 0.57197 0.70083 0.0
H169 H 0.93021 0.50532 0.70258 0.0
H170 H 0.95847 0.59063 0.70202 0.0
C171 C 0.07029 0.53291 0.70306 0.0
C172 C 0.55966 0.98706 0.75137 0.0
C173 C 0.5704 0.03763 0.7543 0.0
H174 H 0.50356 0.93168 0.75203 0.0
C175 C 0.53148 0.07188 0.75235 0.0
H176 H 0.58883 0.95976 0.75264 0.0
C177 C 0.48259 0.05579 0.75154 0.0
C178 C 0.47178 1.00517 0.75325 0.0
H179 H 0.53865 0.11114 0.75415 0.0
H180 H 0.45339 0.08308 0.75295 0.0
C181 C 0.51076 0.97097 0.75115 0.0
C182 C 0.06562 0.50467 0.25088 0.0
C183 C 0.03145 0.4659 0.25378 0.0
H184 H 0.07688 0.58279 0.25109 0.0
C185 C 0.9809 0.47694 0.25206 0.0
H186 H 0.10485 0.49727 0.25173 0.0
C187 C 0.96486 0.526 0.25216 0.0
C188 C 0.9991 0.56483 0.25339 0.0
H189 H 0.95365 0.44789 0.25406 0.0
H190 H 0.92568 0.53344 0.25402 0.0
C191 C 0.04958 0.55372 0.25039 0.0
C192 C 0.1908 0.22445 0.23615 0.0
C193 C 0.1421 0.21001 0.24539 0.0
H194 H 0.26199 0.20254 0.21205 0.0
C195 C 0.12817 0.16102 0.2369 0.0
H196 H 0.20274 0.2619 0.24241 0.0
C197 C 0.16182 0.1273 0.21959 0.0
C198 C 0.21053 0.14146 0.21036 0.0
H199 H 0.09103 0.14847 0.24353 0.0
H200 H 0.14945 0.08995 0.21352 0.0
C201 C 0.22476 0.19043 0.21889 0.0
C202 C 0.84479 0.23138 0.72152 0.0
C203 C 0.89405 0.2175 0.71377 0.0
H204 H 0.77318 0.20877 0.74377 0.0
C205 C 0.90864 0.16891 0.72326 0.0
H206 H 0.83234 0.26851 0.71447 0.0
C207 C 0.87504 0.13497 0.7399 0.0
C208 C 0.82573 0.14849 0.74752 0.0
H209 H 0.94623 0.15679 0.71781 0.0
H210 H 0.88795 0.09792 0.74669 0.0
C211 C 0.81088 0.19713 0.73817 0.0
C212 C 0.84116 0.80751 0.23547 0.0
C213 C 0.89019 0.82149 0.24365 0.0
H214 H 0.76965 0.8301 0.21307 0.0
C215 C 0.90439 0.87035 0.23498 0.0
H216 H 0.82902 0.77017 0.24189 0.0
C217 C 0.87066 0.90439 0.21862 0.0
C218 C 0.82162 0.89072 0.21047 0.0
H219 H 0.94177 0.88257 0.24081 0.0
H220 H 0.88327 0.94163 0.21241 0.0
C221 C 0.80714 0.84185 0.21908 0.0
C222 C 0.13408 0.87685 0.71366 0.0
C223 C 0.14751 0.82741 0.70631 0.0
H224 H 0.15585 0.94812 0.73576 0.0
C225 C 0.19598 0.81246 0.71592 0.0
H226 H 0.09717 0.88985 0.70663 0.0
C227 C 0.23011 0.84636 0.73271 0.0
C228 C 0.21628 0.89571 0.74035 0.0
H229 H 0.20754 0.77466 0.71052 0.0
H230 H 0.26709 0.83381 0.74006 0.0
C231 C 0.1679 0.91044 0.73046 0.0
C232 C 0.85468 0.85906 0.77329 0.0
C233 C 0.82484 0.89096 0.74858 0.0
H234 H 0.91149 0.80395 0.77206 0.0
C235 C 0.82483 0.88699 0.70276 0.0
H236 H 0.85528 0.86166 0.80873 0.0
C237 C 0.85797 0.85511 0.68184 0.0
C238 C 0.89025 0.82569 0.70654 0.0
H239 H 0.80246 0.91155 0.68307 0.0
H240 H 0.8603 0.85547 0.64638 0.0
C241 C 0.88664 0.82599 0.75238 0.0
C242 C 0.1834 0.8523 0.17907 0.0
C243 C 0.21303 0.88385 0.20428 0.0
H244 H 0.12669 0.79734 0.17944 0.0
C245 C 0.21297 0.87925 0.25004 0.0
H246 H 0.18285 0.85541 0.14367 0.0
C247 C 0.17987 0.84718 0.27044 0.0
C248 C 0.14771 0.81819 0.24528 0.0
H249 H 0.23517 0.90354 0.27011 0.0
H250 H 0.17737 0.84714 0.3059 0.0
C251 C 0.15148 0.81902 0.19945 0.0
C252 C 0.18389 0.19099 0.68324 0.0
C253 C 0.15161 0.21965 0.70889 0.0
H254 H 0.23949 0.13465 0.68268 0.0
C255 C 0.15544 0.21824 0.75468 0.0
H256 H 0.18132 0.19146 0.64781 0.0
C257 C 0.18756 0.18472 0.77454 0.0
C258 C 0.21734 0.15351 0.74883 0.0
H259 H 0.13054 0.23965 0.77505 0.0
H260 H 0.18705 0.18114 0.8099 0.0
C261 C 0.2172 0.15869 0.70313 0.0
C262 C 0.8535 0.18346 0.27669 0.0
C263 C 0.8851 0.21333 0.25169 0.0
H264 H 0.79849 0.1268 0.2759 0.0
C265 C 0.88057 0.21373 0.20594 0.0
H266 H 0.85654 0.18255 0.31208 0.0
C267 C 0.8485 0.18086 0.18529 0.0
C268 C 0.81944 0.14846 0.21021 0.0
H269 H 0.90488 0.23612 0.18602 0.0
H270 H 0.84849 0.17873 0.14982 0.0
C271 C 0.82023 0.15177 0.25606 0.0
loop_
_geom_bond_atom_site_label_1
_geom_bond_atom_site_label_2
_geom_bond_distance
_geom_bond_site_symmetry_2
_ccdc_geom_bond_type
O0 Cd1 2.223 . S
O0 C8 1.315 . S
Cd1 O0 2.223 . S
Cd1 O4 2.297 . S
Cd1 O5 2.439 1_545 S
Cd1 O11 2.240 . S
Cd2 O3 2.234 1_565 S
Cd2 O10 2.223 1_565 S
Cd2 O12 2.297 . S
Cd2 O13 2.439 . S
O3 Cd2 2.234 1_545 S
O3 C8 1.293 . S
O4 Cd1 2.297 . S
O4 C6 1.247 . S
O5 Cd1 2.439 1_565 S
O5 C6 1.208 1_565 S
C6 O4 1.247 . S
C6 O5 1.208 1_545 S
C7 O12 1.247 . S
C7 O13 1.208 . S
C8 O0 1.315 . S
C8 O3 1.293 . S
C9 O10 1.315 . S
C9 O11 1.279 . S
O10 Cd2 2.223 1_545 S
O10 C9 1.315 . S
O11 Cd1 2.240 . S
O11 C9 1.279 . S
O12 Cd2 2.297 . S
O12 C7 1.247 . S
O13 Cd2 2.439 . S
O13 C7 1.208 . S
O14 Cd15 2.223 . S
O14 C22 1.315 . S
Cd15 O14 2.223 . S
Cd15 O18 2.297 . S
Cd15 O19 2.439 1_655 S
Cd15 O25 2.240 . S
Cd16 O17 2.240 . S
Cd16 O24 2.223 1_455 S
Cd16 O26 2.297 . S
Cd16 O27 2.439 . S
O17 Cd16 2.240 . S
O17 C22 1.279 1_455 S
O18 Cd15 2.297 . S
O18 C20 1.247 1_655 S
O19 Cd15 2.439 1_455 S
O19 C20 1.208 . S
C20 O18 1.247 1_455 S
C20 O19 1.208 . S
C21 O26 1.247 . S
C21 O27 1.208 . S
C22 O14 1.315 . S
C22 O17 1.279 1_655 S
C23 O24 1.315 . S
C23 O25 1.279 . S
O24 Cd16 2.223 1_655 S
O24 C23 1.315 . S
O25 Cd15 2.240 . S
O25 C23 1.279 . S
O26 Cd16 2.297 . S
O26 C21 1.247 . S
O27 Cd16 2.439 . S
O27 C21 1.208 . S
O28 Cd29 2.223 . S
O28 C36 1.315 . S
Cd29 O28 2.223 . S
Cd29 O32 2.297 . S
Cd29 O33 2.439 1_565 S
Cd29 O39 2.240 . S
Cd30 O31 2.240 . S
Cd30 O38 2.223 1_545 S
Cd30 O40 2.297 . S
Cd30 O41 2.439 . S
O31 Cd30 2.240 . S
O31 C36 1.279 1_545 S
O32 Cd29 2.297 . S
O32 C34 1.247 1_565 S
O33 Cd29 2.439 1_545 S
O33 C34 1.208 . S
C34 O32 1.247 1_545 S
C34 O33 1.208 . S
C35 O40 1.247 . S
C35 O41 1.208 . S
C36 O28 1.315 . S
C36 O31 1.279 1_565 S
C37 O38 1.315 . S
C37 O39 1.279 . S
O38 Cd30 2.223 1_565 S
O38 C37 1.315 . S
O39 Cd29 2.240 . S
O39 C37 1.279 . S
O40 Cd30 2.297 . S
O40 C35 1.247 . S
O41 Cd30 2.439 . S
O41 C35 1.208 . S
O42 Cd43 2.223 . S
O42 C50 1.315 . S
Cd43 O42 2.223 . S
Cd43 O46 2.297 . S
Cd43 O47 2.439 1_455 S
Cd43 O53 2.240 . S
Cd44 O45 2.234 1_655 S
Cd44 O52 2.223 1_655 S
Cd44 O54 2.297 . S
Cd44 O55 2.439 . S
O45 Cd44 2.234 1_455 S
O45 C50 1.293 . S
O46 Cd43 2.297 . S
O46 C48 1.247 . S
O47 Cd43 2.439 1_655 S
O47 C48 1.208 1_655 S
C48 O46 1.247 . S
C48 O47 1.208 1_455 S
C49 O54 1.247 . S
C49 O55 1.208 . S
C50 O42 1.315 . S
C50 O45 1.293 . S
C51 O52 1.315 . S
C51 O53 1.279 . S
O52 Cd44 2.223 1_455 S
O52 C51 1.315 . S
O53 Cd43 2.240 . S
O53 C51 1.279 . S
O54 Cd44 2.297 . S
O54 C49 1.247 . S
O55 Cd44 2.439 . S
O55 C49 1.208 . S
O56 Cd57 2.223 . S
O56 C64 1.315 . S
Cd57 O56 2.223 . S
Cd57 O60 2.297 . S
Cd57 O61 2.439 1_565 S
Cd57 O67 2.240 . S
Cd58 O59 2.240 . S
Cd58 O66 2.223 1_545 S
Cd58 O68 2.297 . S
Cd58 O69 2.439 . S
O59 Cd58 2.240 . S
O59 C64 1.279 1_545 S
O60 Cd57 2.297 . S
O60 C62 1.247 1_565 S
O61 Cd57 2.439 1_545 S
O61 C62 1.208 . S
C62 O60 1.247 1_545 S
C62 O61 1.208 . S
C63 O68 1.247 . S
C63 O69 1.208 . S
C64 O56 1.315 . S
C64 O59 1.279 1_565 S
C65 O66 1.315 . S
C65 O67 1.279 . S
O66 Cd58 2.223 1_565 S
O66 C65 1.315 . S
O67 Cd57 2.240 . S
O67 C65 1.279 . S
O68 Cd58 2.297 . S
O68 C63 1.247 . S
O69 Cd58 2.439 . S
O69 C63 1.208 . S
O70 Cd71 2.223 . S
O70 C78 1.315 . S
Cd71 O70 2.223 . S
Cd71 O74 2.297 . S
Cd71 O75 2.439 1_455 S
Cd71 O81 2.240 . S
Cd72 O73 2.234 1_655 S
Cd72 O80 2.223 1_655 S
Cd72 O82 2.297 . S
Cd72 O83 2.439 . S
O73 Cd72 2.234 1_455 S
O73 C78 1.293 . S
O74 Cd71 2.297 . S
O74 C76 1.247 . S
O75 Cd71 2.439 1_655 S
O75 C76 1.208 1_655 S
C76 O74 1.247 . S
C76 O75 1.208 1_455 S
C77 O82 1.247 . S
C77 O83 1.208 . S
C78 O70 1.315 . S
C78 O73 1.293 . S
C79 O80 1.315 . S
C79 O81 1.279 . S
O80 Cd72 2.223 1_455 S
O80 C79 1.315 . S
O81 Cd71 2.240 . S
O81 C79 1.279 . S
O82 Cd72 2.297 . S
O82 C77 1.247 . S
O83 Cd72 2.439 . S
O83 C77 1.208 . S
O84 Cd85 2.223 . S
O84 C92 1.315 . S
Cd85 O84 2.223 . S
Cd85 O88 2.297 . S
Cd85 O89 2.439 1_545 S
Cd85 O95 2.240 . S
Cd86 O87 2.234 1_565 S
Cd86 O94 2.223 1_565 S
Cd86 O96 2.297 . S
Cd86 O97 2.439 . S
O87 Cd86 2.234 1_545 S
O87 C92 1.293 . S
O88 Cd85 2.297 . S
O88 C90 1.247 . S
O89 Cd85 2.439 1_565 S
O89 C90 1.208 1_565 S
C90 O88 1.247 . S
C90 O89 1.208 1_545 S
C91 O96 1.247 . S
C91 O97 1.208 . S
C92 O84 1.315 . S
C92 O87 1.293 . S
C93 O94 1.315 . S
C93 O95 1.279 . S
O94 Cd86 2.223 1_545 S
O94 C93 1.315 . S
O95 Cd85 2.240 . S
O95 C93 1.279 . S
O96 Cd86 2.297 . S
O96 C91 1.247 . S
O97 Cd86 2.439 . S
O97 C91 1.208 . S
O98 Cd99 2.223 . S
O98 C106 1.315 . S
Cd99 O98 2.223 . S
Cd99 O102 2.297 . S
Cd99 O103 2.439 1_655 S
Cd99 O109 2.240 . S
Cd100 O101 2.240 . S
Cd100 O108 2.223 1_455 S
Cd100 O110 2.297 . S
Cd100 O111 2.439 . S
O101 Cd100 2.240 . S
O101 C106 1.279 1_455 S
O102 Cd99 2.297 . S
O102 C104 1.247 1_655 S
O103 Cd99 2.439 1_455 S
O103 C104 1.208 . S
C104 O102 1.247 1_455 S
C104 O103 1.208 . S
C105 O110 1.247 . S
C105 O111 1.208 . S
C106 O98 1.315 . S
C106 O101 1.279 1_655 S
C107 O108 1.315 . S
C107 O109 1.279 . S
O108 Cd100 2.223 1_655 S
O108 C107 1.315 . S
O109 Cd99 2.240 . S
O109 C107 1.279 . S
O110 Cd100 2.297 . S
O110 C105 1.247 . S
O111 Cd100 2.439 . S
O111 C105 1.208 . S
C112 C113 1.387 . S
C112 H116 0.950 . S
C112 C121 1.396 1_554 S
C113 C112 1.387 . S
C113 C115 1.387 . S
H114 C121 0.947 1_565 S
C115 C113 1.387 . S
C115 C117 1.396 1_554 S
C115 H119 0.950 . S
H116 C112 0.950 . S
C117 C115 1.396 1_556 S
C117 C118 1.385 1_545 S
C117 H120 0.947 1_545 S
C118 C117 1.385 1_565 S
C118 C121 1.385 1_565 S
H119 C115 0.950 . S
H120 C117 0.947 1_565 S
C121 C112 1.396 1_556 S
C121 H114 0.947 1_545 S
C121 C118 1.385 1_545 S
C122 C123 1.387 1_455 S
C122 H126 0.950 1_455 S
C122 C131 1.390 . S
C123 C122 1.387 1_655 S
C123 C125 1.387 1_655 S
H124 C131 0.950 . S
C125 C123 1.387 1_455 S
C125 C127 1.390 . S
C125 H129 0.950 1_455 S
H126 C122 0.950 1_655 S
C127 C125 1.390 . S
C127 C128 1.387 . S
C127 H130 0.950 . S
C128 C127 1.387 . S
C128 C131 1.387 . S
H129 C125 0.950 1_655 S
H130 C127 0.950 . S
C131 C122 1.390 . S
C131 H124 0.950 . S
C131 C128 1.387 . S
C132 C133 1.387 . S
C132 H136 0.950 . S
C132 C141 1.390 1_556 S
C133 C132 1.387 . S
C133 C135 1.387 . S
H134 C141 0.950 1_565 S
C135 C133 1.387 . S
C135 C137 1.390 1_556 S
C135 H139 0.950 . S
H136 C132 0.950 . S
C137 C135 1.390 1_554 S
C137 C138 1.387 1_545 S
C137 H140 0.950 1_545 S
C138 C137 1.387 1_565 S
C138 C141 1.387 1_565 S
H139 C135 0.950 . S
H140 C137 0.950 1_565 S
C141 C132 1.390 1_554 S
C141 H134 0.950 1_545 S
C141 C138 1.387 1_545 S
C142 C143 1.385 1_455 S
C142 H146 0.947 1_455 S
C142 C151 1.396 . S
C143 C142 1.385 1_655 S
C143 C145 1.385 1_655 S
H144 C151 0.950 . S
C145 C143 1.385 1_455 S
C145 C147 1.396 . S
C145 H149 0.947 1_455 S
H146 C142 0.947 1_655 S
C147 C145 1.396 . S
C147 C148 1.387 . S
C147 H150 0.950 . S
C148 C147 1.387 . S
C148 C151 1.387 . S
H149 C145 0.947 1_655 S
H150 C147 0.950 . S
C151 C142 1.396 . S
C151 H144 0.950 . S
C151 C148 1.387 . S
C152 C153 1.387 1_545 S
C152 H156 0.949 1_545 S
C152 C161 1.390 . S
C153 C152 1.387 1_565 S
C153 C155 1.387 1_565 S
H154 C161 0.950 . S
C155 C153 1.387 1_545 S
C155 C157 1.390 . S
C155 H159 0.949 1_545 S
H156 C152 0.949 1_565 S
C157 C155 1.390 . S
C157 C158 1.387 . S
C157 H160 0.950 . S
C158 C157 1.387 . S
C158 C161 1.387 . S
H159 C155 0.949 1_565 S
H160 C157 0.950 . S
C161 C152 1.390 . S
C161 H154 0.950 . S
C161 C158 1.387 . S
C162 C163 1.387 . S
C162 H166 0.950 . S
C162 C171 1.390 . S
C163 C162 1.387 . S
C163 C165 1.387 . S
H164 C171 0.949 1_655 S
C165 C163 1.387 . S
C165 C167 1.390 . S
C165 H169 0.950 . S
H166 C162 0.950 . S
C167 C165 1.390 . S
C167 C168 1.387 1_455 S
C167 H170 0.949 1_455 S
C168 C167 1.387 1_655 S
C168 C171 1.387 1_655 S
H169 C165 0.950 . S
H170 C167 0.949 1_655 S
C171 C162 1.390 . S
C171 H164 0.949 1_455 S
C171 C168 1.387 1_455 S
C172 C173 1.387 1_545 S
C172 H176 0.951 . S
C172 C181 1.390 . S
C173 C172 1.387 1_565 S
C173 C175 1.387 1_565 S
H174 C181 0.950 . S
C175 C173 1.387 1_545 S
C175 C177 1.390 . S
C175 H179 0.951 . S
H176 C172 0.951 . S
C177 C175 1.390 . S
C177 C178 1.387 . S
C177 H180 0.950 . S
C178 C177 1.387 . S
C178 C181 1.387 . S
H179 C175 0.951 . S
H180 C177 0.950 . S
C181 C172 1.390 . S
C181 H174 0.950 . S
C181 C178 1.387 . S
C182 C183 1.387 1_455 S
C182 H186 0.951 . S
C182 C191 1.390 . S
C183 C182 1.387 1_655 S
C183 C185 1.387 1_655 S
H184 C191 0.950 . S
C185 C183 1.387 1_455 S
C185 C187 1.390 . S
C185 H189 0.951 . S
H186 C182 0.951 . S
C187 C185 1.390 . S
C187 C188 1.387 . S
C187 H190 0.950 . S
C188 C187 1.387 . S
C188 C191 1.387 . S
H189 C185 0.951 . S
H190 C187 0.950 . S
C191 C182 1.390 . S
C191 H184 0.950 . S
C191 C188 1.387 . S
C192 C193 1.387 . S
C192 H196 0.950 . S
C192 C201 1.390 . S
C193 C192 1.387 . S
C193 C195 1.387 . S
H194 C201 0.950 . S
C195 C193 1.387 . S
C195 C197 1.390 . S
C195 H199 0.950 . S
H196 C192 0.950 . S
C197 C195 1.390 . S
C197 C198 1.387 . S
C197 H200 0.950 . S
C198 C197 1.387 . S
C198 C201 1.387 . S
H199 C195 0.950 . S
H200 C197 0.950 . S
C201 C192 1.390 . S
C201 H194 0.950 . S
C201 C198 1.387 . S
C202 C203 1.387 . S
C202 H206 0.950 . S
C202 C211 1.390 . S
C203 C202 1.387 . S
C203 C205 1.387 . S
H204 C211 0.950 . S
C205 C203 1.387 . S
C205 C207 1.390 . S
C205 H209 0.950 . S
H206 C202 0.950 . S
C207 C205 1.390 . S
C207 C208 1.387 . S
C207 H210 0.950 . S
C208 C207 1.387 . S
C208 C211 1.387 . S
H209 C205 0.950 . S
H210 C207 0.950 . S
C211 C202 1.390 . S
C211 H204 0.950 . S
C211 C208 1.387 . S
C212 C213 1.387 . S
C212 H216 0.950 . S
C212 C221 1.390 . S
C213 C212 1.387 . S
C213 C215 1.387 . S
H214 C221 0.950 . S
C215 C213 1.387 . S
C215 C217 1.390 . S
C215 H219 0.950 . S
H216 C212 0.950 . S
C217 C215 1.390 . S
C217 C218 1.387 . S
C217 H220 0.950 . S
C218 C217 1.387 . S
C218 C221 1.387 . S
H219 C215 0.950 . S
H220 C217 0.950 . S
C221 C212 1.390 . S
C221 H214 0.950 . S
C221 C218 1.387 . S
C222 C223 1.387 . S
C222 H226 0.950 . S
C222 C231 1.390 . S
C223 C222 1.387 . S
C223 C225 1.387 . S
H224 C231 0.950 . S
C225 C223 1.387 . S
C225 C227 1.390 . S
C225 H229 0.950 . S
H226 C222 0.950 . S
C227 C225 1.390 . S
C227 C228 1.387 . S
C227 H230 0.950 . S
C228 C227 1.387 . S
C228 C231 1.387 . S
H229 C225 0.950 . S
H230 C227 0.950 . S
C231 C222 1.390 . S
C231 H224 0.950 . S
C231 C228 1.387 . S
C232 C233 1.387 . S
C232 H236 0.950 . S
C232 C241 1.390 . S
C233 C232 1.387 . S
C233 C235 1.387 . S
H234 C241 0.950 . S
C235 C233 1.387 . S
C235 C237 1.390 . S
C235 H239 0.950 . S
H236 C232 0.950 . S
C237 C235 1.390 . S
C237 C238 1.387 . S
C237 H240 0.950 . S
C238 C237 1.387 . S
C238 C241 1.387 . S
H239 C235 0.950 . S
H240 C237 0.950 . S
C241 C232 1.390 . S
C241 H234 0.950 . S
C241 C238 1.387 . S
C242 C243 1.387 . S
C242 H246 0.950 . S
C242 C251 1.390 . S
C243 C242 1.387 . S
C243 C245 1.387 . S
H244 C251 0.950 . S
C245 C243 1.387 . S
C245 C247 1.390 . S
C245 H249 0.950 . S
H246 C242 0.950 . S
C247 C245 1.390 . S
C247 C248 1.387 . S
C247 H250 0.950 . S
C248 C247 1.387 . S
C248 C251 1.387 . S
H249 C245 0.950 . S
H250 C247 0.950 . S
C251 C242 1.390 . S
C251 H244 0.950 . S
C251 C248 1.387 . S
C252 C253 1.387 . S
C252 H256 0.950 . S
C252 C261 1.390 . S
C253 C252 1.387 . S
C253 C255 1.387 . S
H254 C261 0.950 . S
C255 C253 1.387 . S
C255 C257 1.390 . S
C255 H259 0.950 . S
H256 C252 0.950 . S
C257 C255 1.390 . S
C257 C258 1.387 . S
C257 H260 0.950 . S
C258 C257 1.387 . S
C258 C261 1.387 . S
H259 C255 0.950 . S
H260 C257 0.950 . S
C261 C252 1.390 . S
C261 H254 0.950 . S
C261 C258 1.387 . S
C262 C263 1.387 . S
C262 H266 0.950 . S
C262 C271 1.390 . S
C263 C262 1.387 . S
C263 C265 1.387 . S
H264 C271 0.950 . S
C265 C263 1.387 . S
C265 C267 1.390 . S
C265 H269 0.950 . S
H266 C262 0.950 . S
C267 C265 1.390 . S
C267 C268 1.387 . S
C267 H270 0.950 . S
C268 C267 1.387 . S
C268 C271 1.387 . S
H269 C265 0.950 . S
H270 C267 0.950 . S
C271 C262 1.390 . S
C271 H264 0.950 . S
C271 C268 1.387 . S
C113 C8 1.794 . S
C118 C64 1.794 . S
C123 C22 1.792 . S
C128 C78 1.792 . S
C133 C92 1.792 . S
C138 C36 1.792 . S
C143 C106 1.794 . S
C148 C50 1.794 . S
C153 C6 1.324 1_565 S
C158 C34 1.324 . S
C163 C20 1.324 . S
C168 C48 1.324 1_655 S
C173 C90 1.319 1_565 S
C178 C62 1.319 . S
C183 C76 1.319 1_655 S
C188 C104 1.319 . S
C193 C79 1.983 . S
C198 C9 1.983 . S
C203 C23 1.982 . S
C208 C93 1.984 . S
C213 C107 1.982 . S
C218 C37 1.983 . S
C223 C51 1.985 . S
C228 C65 1.983 . S
C233 C91 1.107 . S
C238 C49 1.109 . S
C243 C7 1.108 . S
C248 C105 1.110 . S
C253 C21 1.104 . S
C258 C63 1.104 . S
C263 C77 1.104 . S
C268 C35 1.105 . S
