# Generated by pormake.
# Topology dft, (4)-cn, num edge types: 1
# Building blocks:
#     Node 0, Type 0, BuildingBlock: NAHDIM_clean_sbu_0, # of connection points: 4
#     Node 1, Type 0, BuildingBlock: NAHDIM_clean_sbu_0, # of connection points: 4
#     Node 2, Type 0, BuildingBlock: NAHDIM_clean_sbu_0, # of connection points: 4
#     Node 3, Type 0, BuildingBlock: NAHDIM_clean_sbu_0, # of connection points: 4
#     Node 4, Type 0, BuildingBlock: NAHDIM_clean_sbu_0, # of connection points: 4
#     Node 5, Type 0, BuildingBlock: NAHDIM_clean_sbu_0, # of connection points: 4
#     Node 6, Type 0, BuildingBlock: NAHDIM_clean_sbu_0, # of connection points: 4
#     Node 7, Type 0, BuildingBlock: NAHDIM_clean_sbu_0, # of connection points: 4
#     Edge 8, Type (0, 0), BuildingBlock: AJUNOK_clean_linker_0, # of connection points: 2
#     Edge 9, Type (0, 0), BuildingBlock: AJUNOK_clean_linker_0, # of connection points: 2
#     Edge 10, Type (0, 0), BuildingBlock: AJUNOK_clean_linker_0, # of connection points: 2
#     Edge 11, Type (0, 0), BuildingBlock: AJUNOK_clean_linker_0, # of connection points: 2
#     Edge 12, Type (0, 0), BuildingBlock: AJUNOK_clean_linker_0, # of connection points: 2
#     Edge 13, Type (0, 0), BuildingBlock: AJUNOK_clean_linker_0, # of connection points: 2
#     Edge 14, Type (0, 0), BuildingBlock: AJUNOK_clean_linker_0, # of connection points: 2
#     Edge 15, Type (0, 0), BuildingBlock: AJUNOK_clean_linker_0, # of connection points: 2
#     Edge 16, Type (0, 0), BuildingBlock: AJUNOK_clean_linker_0, # of connection points: 2
#     Edge 17, Type (0, 0), BuildingBlock: AJUNOK_clean_linker_0, # of connection points: 2
#     Edge 18, Type (0, 0), BuildingBlock: AJUNOK_clean_linker_0, # of connection points: 2
#     Edge 19, Type (0, 0), BuildingBlock: AJUNOK_clean_linker_0, # of connection points: 2
#     Edge 20, Type (0, 0), BuildingBlock: AJUNOK_clean_linker_0, # of connection points: 2
#     Edge 21, Type (0, 0), BuildingBlock: AJUNOK_clean_linker_0, # of connection points: 2
#     Edge 22, Type (0, 0), BuildingBlock: AJUNOK_clean_linker_0, # of connection points: 2
#     Edge 23, Type (0, 0), BuildingBlock: AJUNOK_clean_linker_0, # of connection points: 2
# Relax obj value: 0.140
# Max RMSD: 0.139
# Mean RMSD: 0.139
data_MOF--net-dft--node1-NAHDIM_clean_sbu_0--edge1-AJUNOK_clean_linker_0
_symmetry_space_group_name_H-M    P1
_symmetry_Int_Tables_number       1
_symmetry_cell_setting            triclinic
loop_
_symmetry_equiv_pos_as_xyz
'x, y, z'
_cell_length_a     26.163163
_cell_length_b     26.031983
_cell_length_c     28.554342
_cell_angle_alpha  90.021627
_cell_angle_beta   90.200192
_cell_angle_gamma 90.17498
loop_
_atom_site_label
_atom_site_type_symbol
_atom_site_fract_x
_atom_site_fract_y
_atom_site_fract_z
_atom_type_partial_charge
C0 C 0.40897 0.04445 0.23951 0.0
O1 O 0.39447 0.09242 0.23465 0.0
O2 O 0.28024 0.09151 0.23853 0.0
Zn3 Zn 0.30676 0.02679 0.20881 0.0
O4 O 0.31032 0.035 0.13903 0.0
C5 C 0.21248 0.97552 0.2055 0.0
O6 O 0.2027 0.01657 0.18032 0.0
O7 O 0.3766 0.00893 0.23202 0.0
C8 C 0.31454 -0.00427 0.11294 0.0
O9 O 0.3174 0.95016 0.13251 0.0
C10 C 0.2714 0.13173 0.21467 0.0
O11 O 0.28239 0.13204 0.16982 0.0
O12 O 0.25699 0.9703 0.22276 0.0
C13 C -0.00688 0.40423 0.69619 0.0
O14 O 0.9464 0.38726 0.68897 0.0
O15 O 0.95523 0.27034 0.70671 0.0
Zn16 Zn 0.01761 0.29939 0.67447 0.0
O17 O 0.01038 0.29657 0.60432 0.0
C18 C 0.08448 0.23966 0.7337 0.0
O19 O 0.05136 0.25261 0.76605 0.0
O20 O 0.03003 0.37286 0.6931 0.0
C21 C 0.02174 0.25586 0.58211 0.0
O22 O 0.0365 0.2153 0.60586 0.0
C23 C 0.91931 0.24702 0.68531 0.0
O24 O 0.92118 0.24292 0.63952 0.0
O25 O 0.07827 0.25641 0.69231 0.0
C26 C 0.62361 0.9923 0.2334 0.0
O27 O 0.63702 0.94416 0.22729 0.0
O28 O 0.75423 0.94762 0.2313 0.0
Zn29 Zn 0.72525 0.01059 0.20045 0.0
O30 O 0.72 0.0009 0.13083 0.0
C31 C 0.8189 0.06483 0.19906 0.0
O32 O 0.83245 0.02269 0.17704 0.0
O33 O 0.65601 0.02748 0.22514 0.0
C34 C 0.71443 0.03981 0.10449 0.0
O35 O 0.71166 0.08557 0.12371 0.0
C36 C 0.76312 0.90644 0.20887 0.0
O37 O 0.75007 0.90356 0.1645 0.0
O38 O 0.77314 0.06901 0.21316 0.0
C39 C 0.02726 0.62517 0.70142 0.0
O40 O 0.07316 0.64465 0.69549 0.0
O41 O 0.05396 0.7635 0.71869 0.0
Zn42 Zn -0.00236 0.72924 0.68176 0.0
O43 O 0.01105 0.73412 0.61281 0.0
C44 C 0.92334 0.78308 0.73609 0.0
O45 O 0.95458 0.76999 0.77013 0.0
O46 O 0.98887 0.65479 0.69863 0.0
C47 C 0.01078 0.77738 0.59223 0.0
O48 O 0.00319 0.81909 0.61713 0.0
C49 C 0.09753 0.77577 0.70258 0.0
O50 O 0.1092 0.76278 0.65947 0.0
O51 O 0.9331 0.76811 0.69474 0.0
C52 C 0.39898 0.9875 0.78413 0.0
O53 O 0.38548 0.93926 0.78984 0.0
O54 O 0.2641 0.94383 0.78112 0.0
Zn55 Zn 0.2956 0.00475 0.8139 0.0
O56 O 0.30126 0.98934 0.88248 0.0
C57 C 0.24142 0.08513 0.76608 0.0
O58 O 0.26644 0.06685 0.72992 0.0
O59 O 0.36584 0.02232 0.79056 0.0
C60 C 0.31084 0.02575 0.91079 0.0
O61 O 0.31712 0.07237 0.89407 0.0
C62 C 0.22418 0.92582 0.80048 0.0
O63 O 0.20809 0.94741 0.83929 0.0
O64 O 0.24856 0.06487 0.80598 0.0
C65 C 0.04212 0.41286 0.27005 0.0
O66 O 0.08755 0.39803 0.28429 0.0
O67 O 0.08746 0.28261 0.26394 0.0
Zn68 Zn 0.0193 0.30724 0.28734 0.0
O69 O 0.01729 0.3035 0.35764 0.0
C70 C 0.97457 0.21685 0.24552 0.0
O71 O 0.02264 0.2027 0.24326 0.0
O72 O 0.00639 0.37986 0.26757 0.0
C73 C 0.0191 0.26014 0.37801 0.0
O74 O 0.02233 0.21839 0.35238 0.0
C75 C 0.12617 0.27599 0.29024 0.0
O76 O 0.1239 0.28991 0.33438 0.0
O77 O 0.96391 0.26079 0.26224 0.0
C78 C 0.61395 0.04382 0.78475 0.0
O79 O 0.62628 0.09038 0.79867 0.0
O80 O 0.75191 0.08517 0.76891 0.0
Zn81 Zn 0.71965 0.02681 0.80506 0.0
O82 O 0.71597 0.04365 0.87358 0.0
C83 C 0.7665 0.93869 0.7611 0.0
O84 O 0.73762 0.95202 0.7254 0.0
O85 O 0.64873 0.01001 0.78268 0.0
C86 C 0.70789 0.00758 0.90258 0.0
O87 O 0.70123 0.96069 0.88657 0.0
C88 C 0.77671 0.12023 0.79025 0.0
O89 O 0.77839 0.11939 0.8362 0.0
O90 O 0.76465 0.96504 0.79846 0.0
C91 C -0.00242 0.63108 0.26298 0.0
O92 O 0.95103 0.64806 0.25564 0.0
O93 O 0.94608 0.75571 0.27114 0.0
Zn94 Zn 0.01488 0.73456 0.29654 0.0
O95 O 0.01549 0.73869 0.3668 0.0
C96 C 0.05617 0.82356 0.24985 0.0
O97 O 0.00753 0.83299 0.24268 0.0
O98 O 0.03121 0.66185 0.27887 0.0
C99 C 0.02234 0.7808 0.38851 0.0
O100 O 0.02893 0.82316 0.36426 0.0
C101 C 0.90909 0.7704 0.29648 0.0
O102 O 0.91376 0.76886 0.34226 0.0
O103 O 0.06879 0.78286 0.27161 0.0
C104 C 0.3174 0.05113 0.04153 0.0
C105 C 0.31499 0.00165 0.06127 0.0
C106 C 0.31665 0.05834 0.99296 0.0
C107 C 0.31317 0.01642 0.962 0.0
H108 H 0.31973 0.08483 0.06371 0.0
H109 H 0.31826 0.0973 0.97972 0.0
S110 S 0.30676 0.87868 0.99559 0.0
N111 N 0.30973 0.90979 0.0459 0.0
N112 N 0.30817 0.92334 0.95462 0.0
C113 C 0.31119 0.9666 0.98118 0.0
C114 C 0.31217 0.95923 0.03076 0.0
C115 C 0.00943 0.30061 0.50541 0.0
C116 C 0.01985 0.25504 0.53014 0.0
C117 C 0.00908 0.3017 0.45639 0.0
C118 C 0.01885 0.25722 0.42991 0.0
H119 H 0.00196 0.33608 0.52397 0.0
H120 H 0.00113 0.33791 0.4392 0.0
S121 S 0.04739 0.12758 0.47747 0.0
N122 N 0.03955 0.1639 0.52426 0.0
N123 N 0.03877 0.16596 0.43217 0.0
C124 C 0.02877 0.21116 0.4541 0.0
C125 C 0.02931 0.21008 0.50414 0.0
C126 C 0.70607 0.97592 0.98517 0.0
C127 C 0.70816 0.0175 0.95376 0.0
C128 C 0.70792 0.98364 0.03367 0.0
C129 C 0.71164 0.0333 0.05291 0.0
H130 H 0.70351 0.93684 0.97233 0.0
H131 H 0.70648 0.9502 0.0562 0.0
S132 S 0.7175 0.15552 0.98596 0.0
N133 N 0.71355 0.11045 0.94544 0.0
N134 N 0.71687 0.12496 0.03658 0.0
C135 C 0.71321 0.07538 0.02195 0.0
C136 C 0.71154 0.06749 0.97244 0.0
C137 C 0.01773 0.7351 0.46529 0.0
C138 C 0.02138 0.78167 0.44048 0.0
C139 C 0.01527 0.73425 0.51421 0.0
C140 C 0.01608 0.77994 0.54056 0.0
H141 H 0.01643 0.69874 0.44686 0.0
H142 H 0.01193 0.69729 0.53137 0.0
S143 S 0.02724 0.91222 0.49286 0.0
N144 N 0.0272 0.87483 0.44616 0.0
N145 N 0.02241 0.87322 0.5382 0.0
C146 C 0.02053 0.82685 0.51635 0.0
C147 C 0.02324 0.82772 0.46635 0.0
C148 C 0.47969 0.98019 0.24079 0.0
C149 C 0.46367 0.03147 0.24593 0.0
C150 C 0.5316 0.96755 0.23928 0.0
C151 C 0.56961 0.00566 0.24281 0.0
H152 H 0.45202 0.94961 0.23582 0.0
H153 H 0.54178 0.92781 0.23317 0.0
S154 S 0.5481 0.14457 0.26479 0.0
N155 N 0.49013 0.11979 0.26046 0.0
N156 N 0.58775 0.09604 0.25762 0.0
C157 C 0.55423 0.0566 0.25137 0.0
C158 C 0.50127 0.0695 0.25294 0.0
C159 C 0.96179 0.49481 0.70058 0.0
C160 C 0.00281 0.46005 0.70292 0.0
C161 C 0.96999 0.54798 0.70194 0.0
C162 C 0.01959 0.56878 0.7056 0.0
H163 H 0.92295 0.48103 0.69633 0.0
H164 H 0.93711 0.57291 0.69859 0.0
S165 S 0.1398 0.49446 0.71836 0.0
N166 N 0.09473 0.45031 0.71315 0.0
N167 N 0.11009 0.55021 0.7156 0.0
C168 C 0.06082 0.53449 0.71026 0.0
C169 C 0.05246 0.48021 0.70896 0.0
C170 C 0.52111 0.06641 0.78519 0.0
C171 C 0.55943 0.0295 0.77778 0.0
C172 C 0.46926 0.05286 0.78493 0.0
C173 C 0.45347 0.00175 0.77742 0.0
H174 H 0.53112 0.10594 0.79288 0.0
H175 H 0.44155 0.0825 0.79255 0.0
S176 S 0.53808 0.89161 0.7499 0.0
N177 N 0.57759 0.9404 0.75793 0.0
N178 N 0.48014 0.91498 0.75766 0.0
C179 C 0.49115 0.96496 0.76727 0.0
C180 C 0.54407 0.9788 0.76736 0.0
C181 C 0.06862 0.50497 0.27445 0.0
C182 C 0.03145 0.46813 0.26227 0.0
C183 C 0.05789 0.55756 0.27269 0.0
C184 C 0.00955 0.5756 0.25862 0.0
H185 H 0.10591 0.49325 0.28701 0.0
H186 H 0.08743 0.58412 0.28396 0.0
S187 S 0.90094 0.49518 0.21712 0.0
N188 N 0.94582 0.4535 0.23126 0.0
N189 N 0.92566 0.55239 0.22792 0.0
C190 C 0.97289 0.5393 0.24379 0.0
C191 C 0.98384 0.48561 0.24564 0.0
C192 C 0.17712 0.24099 0.22397 0.0
C193 C 0.16969 0.24557 0.27255 0.0
C194 C 0.2125 0.2062 0.20566 0.0
C195 C 0.24124 0.17405 0.23522 0.0
H196 H 0.15417 0.26323 0.19974 0.0
H197 H 0.21527 0.20272 0.16795 0.0
S198 S 0.24027 0.17485 0.36518 0.0
N199 N 0.19735 0.21822 0.3501 0.0
N200 N 0.26346 0.15232 0.31558 0.0
C201 C 0.23634 0.18025 0.28394 0.0
C202 C 0.2007 0.2162 0.30264 0.0
C203 C 0.84875 0.18211 0.68962 0.0
C204 C 0.87898 0.21967 0.71202 0.0
C205 C 0.81432 0.15158 0.71488 0.0
C206 C 0.80855 0.15739 0.76359 0.0
H207 H 0.85291 0.17483 0.65249 0.0
H208 H 0.79336 0.12203 0.69615 0.0
S209 S 0.87368 0.25506 0.83789 0.0
N210 N 0.89731 0.26435 0.78505 0.0
N211 N 0.83252 0.20723 0.8325 0.0
C212 C 0.83649 0.19676 0.78602 0.0
C213 C 0.8717 0.22777 0.76027 0.0
C214 C 0.83788 0.8337 0.30118 0.0
C215 C 0.86575 0.79799 0.27465 0.0
C216 C 0.80291 0.86697 0.27984 0.0
C217 C 0.79401 0.86548 0.2312 0.0
H218 H 0.84497 0.83799 0.33838 0.0
H219 H 0.78407 0.89529 0.30151 0.0
S220 S 0.85178 0.77365 0.14717 0.0
N221 N 0.87823 0.75925 0.19804 0.0
N222 N 0.81215 0.82143 0.15787 0.0
C223 C 0.81892 0.82741 0.20478 0.0
C224 C 0.85491 0.7938 0.22651 0.0
C225 C 0.17596 0.83092 0.70908 0.0
C226 C 0.13214 0.80969 0.73015 0.0
C227 C 0.20634 0.86727 0.73255 0.0
C228 C 0.19415 0.88393 0.77805 0.0
H229 H 0.18623 0.82058 0.67361 0.0
H230 H 0.23885 0.8834 0.71427 0.0
S231 S 0.08636 0.83641 0.85077 0.0
N232 N 0.08031 0.80527 0.80072 0.0
N233 N 0.13723 0.87339 0.84469 0.0
C234 C 0.15168 0.86138 0.80033 0.0
C235 C 0.12077 0.82434 0.77645 0.0
C236 C 0.81302 0.87406 0.71252 0.0
C237 C 0.80355 0.8959 0.7567 0.0
C238 C 0.8507 0.83654 0.70655 0.0
C239 C 0.88045 0.81913 0.74453 0.0
H240 H 0.79214 0.88693 0.6819 0.0
H241 H 0.85727 0.82203 0.67153 0.0
S242 S 0.86737 0.86034 0.86849 0.0
N243 N 0.82456 0.89468 0.83984 0.0
N244 N 0.8953 0.82421 0.82864 0.0
C245 C 0.86996 0.83911 0.7893 0.0
C246 C 0.83159 0.87745 0.79537 0.0
C247 C 0.18403 0.89204 0.24031 0.0
C248 C 0.17222 0.93653 0.21449 0.0
C249 C 0.14654 0.85531 0.25069 0.0
C250 C 0.0956 0.86156 0.23583 0.0
H251 H 0.22251 0.88559 0.25308 0.0
H252 H 0.15758 0.82215 0.27124 0.0
S253 S 0.04493 0.97021 0.16537 0.0
N254 N 0.10601 0.98395 0.17294 0.0
N255 N 0.03565 0.91499 0.19242 0.0
C256 C 0.08338 0.90539 0.20917 0.0
C257 C 0.12164 0.9428 0.19851 0.0
C258 C 0.15684 0.18434 0.70711 0.0
C259 C 0.12632 0.20284 0.74395 0.0
C260 C 0.19445 0.14712 0.71485 0.0
C261 C 0.20332 0.12678 0.75977 0.0
H262 H 0.15111 0.19794 0.67163 0.0
H263 H 0.21617 0.13371 0.68506 0.0
S264 S 0.13614 0.16449 0.86894 0.0
N265 N 0.10917 0.19959 0.82762 0.0
N266 N 0.17989 0.12972 0.84222 0.0
C267 C 0.17408 0.14592 0.79726 0.0
C268 C 0.13562 0.18386 0.78935 0.0
C269 C 0.94673 0.13221 0.21287 0.0
C270 C 0.93356 0.1804 0.23158 0.0
C271 C 0.90933 0.09562 0.20173 0.0
C272 C 0.85715 0.10552 0.20904 0.0
H273 H 0.98638 0.12218 0.20721 0.0
H274 H 0.92171 0.05888 0.18807 0.0
S275 S 0.80188 0.2268 0.25474 0.0
N276 N 0.86419 0.23689 0.25511 0.0
N277 N 0.79391 0.16801 0.23426 0.0
C278 C 0.8432 0.15397 0.22675 0.0
C279 C 0.88137 0.19141 0.23795 0.0
loop_
_geom_bond_atom_site_label_1
_geom_bond_atom_site_label_2
_geom_bond_distance
_geom_bond_site_symmetry_2
_ccdc_geom_bond_type
C0 O1 1.160 . S
C0 O7 1.185 . S
O1 C0 1.160 . S
O2 Zn3 1.899 . S
O2 C10 1.284 . S
Zn3 O2 1.899 . S
Zn3 O4 2.032 . S
Zn3 O7 2.086 . S
Zn3 O12 1.977 1_545 S
O4 Zn3 2.032 . S
O4 C8 1.278 . S
C5 O6 1.203 . S
C5 O12 1.267 . S
O6 C5 1.203 . S
O7 C0 1.185 . S
O7 Zn3 2.086 . S
C8 O4 1.278 . S
C8 O9 1.211 1_545 S
O9 C8 1.211 1_565 S
C10 O2 1.284 . S
C10 O11 1.273 . S
O11 C10 1.273 . S
O12 Zn3 1.977 1_565 S
O12 C5 1.267 . S
C13 O14 1.160 1_455 S
C13 O20 1.185 . S
O14 C13 1.160 1_655 S
O15 Zn16 1.899 1_655 S
O15 C23 1.284 . S
Zn16 O15 1.899 1_455 S
Zn16 O17 2.032 . S
Zn16 O20 2.086 . S
Zn16 O25 1.977 . S
O17 Zn16 2.032 . S
O17 C21 1.278 . S
C18 O19 1.203 . S
C18 O25 1.267 . S
O19 C18 1.203 . S
O20 C13 1.185 . S
O20 Zn16 2.086 . S
C21 O17 1.278 . S
C21 O22 1.211 . S
O22 C21 1.211 . S
C23 O15 1.284 . S
C23 O24 1.273 . S
O24 C23 1.273 . S
O25 Zn16 1.977 . S
O25 C18 1.267 . S
C26 O27 1.160 1_545 S
C26 O33 1.185 . S
O27 C26 1.160 1_565 S
O28 Zn29 1.899 1_565 S
O28 C36 1.284 . S
Zn29 O28 1.899 1_545 S
Zn29 O30 2.032 . S
Zn29 O33 2.086 . S
Zn29 O38 1.977 . S
O30 Zn29 2.032 . S
O30 C34 1.278 . S
C31 O32 1.203 . S
C31 O38 1.267 . S
O32 C31 1.203 . S
O33 C26 1.185 . S
O33 Zn29 2.086 . S
C34 O30 1.278 . S
C34 O35 1.211 . S
O35 C34 1.211 . S
C36 O28 1.284 . S
C36 O37 1.273 . S
O37 C36 1.273 . S
O38 Zn29 1.977 . S
O38 C31 1.267 . S
C39 O40 1.160 . S
C39 O46 1.185 . S
O40 C39 1.160 . S
O41 Zn42 1.899 . S
O41 C49 1.284 . S
Zn42 O41 1.899 . S
Zn42 O43 2.032 . S
Zn42 O46 2.086 . S
Zn42 O51 1.977 1_455 S
O43 Zn42 2.032 . S
O43 C47 1.278 . S
C44 O45 1.203 . S
C44 O51 1.267 . S
O45 C44 1.203 . S
O46 C39 1.185 . S
O46 Zn42 2.086 . S
C47 O43 1.278 . S
C47 O48 1.211 1_455 S
O48 C47 1.211 1_655 S
C49 O41 1.284 . S
C49 O50 1.273 . S
O50 C49 1.273 . S
O51 Zn42 1.977 1_655 S
O51 C44 1.267 . S
C52 O53 1.160 1_545 S
C52 O59 1.185 . S
O53 C52 1.160 1_565 S
O54 Zn55 1.899 1_565 S
O54 C62 1.284 . S
Zn55 O54 1.899 1_545 S
Zn55 O56 2.032 . S
Zn55 O59 2.086 . S
Zn55 O64 1.977 . S
O56 Zn55 2.032 . S
O56 C60 1.278 . S
C57 O58 1.203 . S
C57 O64 1.267 . S
O58 C57 1.203 . S
O59 C52 1.185 . S
O59 Zn55 2.086 . S
C60 O56 1.278 . S
C60 O61 1.211 . S
O61 C60 1.211 . S
C62 O54 1.284 . S
C62 O63 1.273 . S
O63 C62 1.273 . S
O64 Zn55 1.977 . S
O64 C57 1.267 . S
C65 O66 1.160 . S
C65 O72 1.185 . S
O66 C65 1.160 . S
O67 Zn68 1.899 . S
O67 C75 1.284 . S
Zn68 O67 1.899 . S
Zn68 O69 2.032 . S
Zn68 O72 2.086 . S
Zn68 O77 1.977 1_455 S
O69 Zn68 2.032 . S
O69 C73 1.278 . S
C70 O71 1.203 . S
C70 O77 1.267 . S
O71 C70 1.203 . S
O72 C65 1.185 . S
O72 Zn68 2.086 . S
C73 O69 1.278 . S
C73 O74 1.211 1_455 S
O74 C73 1.211 1_655 S
C75 O67 1.284 . S
C75 O76 1.273 . S
O76 C75 1.273 . S
O77 Zn68 1.977 1_655 S
O77 C70 1.267 . S
C78 O79 1.160 . S
C78 O85 1.185 . S
O79 C78 1.160 . S
O80 Zn81 1.899 . S
O80 C88 1.284 . S
Zn81 O80 1.899 . S
Zn81 O82 2.032 . S
Zn81 O85 2.086 . S
Zn81 O90 1.977 1_545 S
O82 Zn81 2.032 . S
O82 C86 1.278 . S
C83 O84 1.203 . S
C83 O90 1.267 . S
O84 C83 1.203 . S
O85 C78 1.185 . S
O85 Zn81 2.086 . S
C86 O82 1.278 . S
C86 O87 1.211 1_545 S
O87 C86 1.211 1_565 S
C88 O80 1.284 . S
C88 O89 1.273 . S
O89 C88 1.273 . S
O90 Zn81 1.977 1_565 S
O90 C83 1.267 . S
C91 O92 1.160 1_455 S
C91 O98 1.185 . S
O92 C91 1.160 1_655 S
O93 Zn94 1.899 1_655 S
O93 C101 1.284 . S
Zn94 O93 1.899 1_455 S
Zn94 O95 2.032 . S
Zn94 O98 2.086 . S
Zn94 O103 1.977 . S
O95 Zn94 2.032 . S
O95 C99 1.278 . S
C96 O97 1.203 . S
C96 O103 1.267 . S
O97 C96 1.203 . S
O98 C91 1.185 . S
O98 Zn94 2.086 . S
C99 O95 1.278 . S
C99 O100 1.211 . S
O100 C99 1.211 . S
C101 O93 1.284 . S
C101 O102 1.273 . S
O102 C101 1.273 . S
O103 Zn94 1.977 . S
O103 C96 1.267 . S
C104 C105 1.369 . S
C104 C106 1.419 1_554 S
C104 H108 0.930 . S
C105 C104 1.369 . S
C105 C114 1.429 1_545 S
C106 C104 1.419 1_556 S
C106 C107 1.363 . S
C106 H109 0.929 . S
C107 C106 1.363 . S
C107 C113 1.428 1_545 S
H108 C104 0.930 . S
H109 C106 0.929 . S
S110 N111 1.613 . S
S110 N112 1.610 1_554 S
N111 S110 1.613 . S
N111 C114 1.350 . S
N112 S110 1.610 1_556 S
N112 C113 1.351 . S
C113 C107 1.428 1_565 S
C113 N112 1.351 . S
C113 C114 1.434 1_556 S
C114 C105 1.429 1_565 S
C114 N111 1.350 . S
C114 C113 1.434 1_554 S
C115 C116 1.369 . S
C115 C117 1.419 . S
C115 H119 0.930 . S
C116 C115 1.369 . S
C116 C125 1.429 1_455 S
C117 C115 1.419 . S
C117 C118 1.363 . S
C117 H120 0.929 . S
C118 C117 1.363 . S
C118 C124 1.422 1_455 S
H119 C115 0.930 . S
H120 C117 0.929 . S
S121 N122 1.613 . S
S121 N123 1.610 . S
N122 S121 1.613 . S
N122 C125 1.350 . S
N123 S121 1.610 . S
N123 C124 1.357 . S
C124 C118 1.422 1_655 S
C124 N123 1.357 . S
C124 C125 1.435 . S
C125 C116 1.429 1_655 S
C125 N122 1.350 . S
C125 C124 1.435 . S
C126 C127 1.369 1_565 S
C126 C128 1.419 1_556 S
C126 H130 0.930 . S
C127 C126 1.369 1_545 S
C127 C136 1.429 . S
C128 C126 1.419 1_554 S
C128 C129 1.363 1_565 S
C128 H131 0.929 . S
C129 C128 1.363 1_545 S
C129 C135 1.428 . S
H130 C126 0.930 . S
H131 C128 0.929 . S
S132 N133 1.613 1_554 S
S132 N134 1.610 . S
N133 S132 1.613 1_556 S
N133 C136 1.350 . S
N134 S132 1.610 . S
N134 C135 1.351 . S
C135 C129 1.428 . S
C135 N134 1.351 . S
C135 C136 1.434 1_554 S
C136 C127 1.429 . S
C136 N133 1.350 . S
C136 C135 1.434 1_556 S
C137 C138 1.369 1_655 S
C137 C139 1.418 1_655 S
C137 H141 0.930 . S
C138 C137 1.369 1_455 S
C138 C147 1.429 . S
C139 C137 1.418 1_455 S
C139 C140 1.364 . S
C139 H142 0.928 1_455 S
C140 C139 1.364 . S
C140 C146 1.428 . S
H141 C137 0.930 . S
H142 C139 0.928 1_655 S
S143 N144 1.613 . S
S143 N145 1.610 . S
N144 S143 1.613 . S
N144 C147 1.350 . S
N145 S143 1.610 . S
N145 C146 1.351 . S
C146 C140 1.428 . S
C146 N145 1.351 . S
C146 C147 1.434 . S
C147 C138 1.429 . S
C147 N144 1.350 . S
C147 C146 1.434 . S
C148 C149 1.369 1_565 S
C148 C150 1.419 . S
C148 H152 0.930 . S
C149 C148 1.369 1_545 S
C149 C158 1.429 . S
C150 C148 1.419 . S
C150 C151 1.363 1_565 S
C150 H153 0.929 . S
C151 C150 1.363 1_545 S
C151 C157 1.428 . S
H152 C148 0.930 . S
H153 C150 0.929 . S
S154 N155 1.613 . S
S154 N156 1.610 . S
N155 S154 1.613 . S
N155 C158 1.350 . S
N156 S154 1.610 . S
N156 C157 1.351 . S
C157 C151 1.428 . S
C157 N156 1.351 . S
C157 C158 1.434 . S
C158 C149 1.429 . S
C158 N155 1.350 . S
C158 C157 1.434 . S
C159 C160 1.369 1_655 S
C159 C161 1.419 . S
C159 H163 0.930 . S
C160 C159 1.369 1_455 S
C160 C169 1.429 . S
C161 C159 1.419 . S
C161 C162 1.363 1_655 S
C161 H164 0.929 . S
C162 C161 1.363 1_455 S
C162 C168 1.428 . S
H163 C159 0.930 . S
H164 C161 0.929 . S
S165 N166 1.613 . S
S165 N167 1.610 . S
N166 S165 1.613 . S
N166 C169 1.350 . S
N167 S165 1.610 . S
N167 C168 1.351 . S
C168 C162 1.428 . S
C168 N167 1.351 . S
C168 C169 1.434 . S
C169 C160 1.429 . S
C169 N166 1.350 . S
C169 C168 1.434 . S
C170 C171 1.369 . S
C170 C172 1.419 . S
C170 H174 0.930 . S
C171 C170 1.369 . S
C171 C180 1.429 1_545 S
C172 C170 1.419 . S
C172 C173 1.363 . S
C172 H175 0.929 . S
C173 C172 1.363 . S
C173 C179 1.428 1_545 S
H174 C170 0.930 . S
H175 C172 0.929 . S
S176 N177 1.613 . S
S176 N178 1.610 . S
N177 S176 1.613 . S
N177 C180 1.350 . S
N178 S176 1.610 . S
N178 C179 1.351 . S
C179 C173 1.428 1_565 S
C179 N178 1.351 . S
C179 C180 1.434 . S
C180 C171 1.429 1_565 S
C180 N177 1.350 . S
C180 C179 1.434 . S
C181 C182 1.369 . S
C181 C183 1.419 . S
C181 H185 0.930 . S
C182 C181 1.369 . S
C182 C191 1.429 1_455 S
C183 C181 1.419 . S
C183 C184 1.363 . S
C183 H186 0.929 . S
C184 C183 1.363 . S
C184 C190 1.428 1_455 S
H185 C181 0.930 . S
H186 C183 0.929 . S
S187 N188 1.613 . S
S187 N189 1.610 . S
N188 S187 1.613 . S
N188 C191 1.350 . S
N189 S187 1.610 . S
N189 C190 1.351 . S
C190 C184 1.428 1_655 S
C190 N189 1.351 . S
C190 C191 1.434 . S
C191 C182 1.429 1_655 S
C191 N188 1.350 . S
C191 C190 1.434 . S
C192 C193 1.369 . S
C192 C194 1.419 . S
C192 H196 0.930 . S
C193 C192 1.369 . S
C193 C202 1.429 . S
C194 C192 1.419 . S
C194 C195 1.363 . S
C194 H197 0.929 . S
C195 C194 1.363 . S
C195 C201 1.428 . S
H196 C192 0.930 . S
H197 C194 0.929 . S
S198 N199 1.613 . S
S198 N200 1.610 . S
N199 S198 1.613 . S
N199 C202 1.350 . S
N200 S198 1.610 . S
N200 C201 1.351 . S
C201 C195 1.428 . S
C201 N200 1.351 . S
C201 C202 1.434 . S
C202 C193 1.429 . S
C202 N199 1.350 . S
C202 C201 1.434 . S
C203 C204 1.369 . S
C203 C205 1.419 . S
C203 H207 0.930 . S
C204 C203 1.369 . S
C204 C213 1.429 . S
C205 C203 1.419 . S
C205 C206 1.363 . S
C205 H208 0.929 . S
C206 C205 1.363 . S
C206 C212 1.428 . S
H207 C203 0.930 . S
H208 C205 0.929 . S
S209 N210 1.613 . S
S209 N211 1.610 . S
N210 S209 1.613 . S
N210 C213 1.350 . S
N211 S209 1.610 . S
N211 C212 1.351 . S
C212 C206 1.428 . S
C212 N211 1.351 . S
C212 C213 1.434 . S
C213 C204 1.429 . S
C213 N210 1.350 . S
C213 C212 1.434 . S
C214 C215 1.369 . S
C214 C216 1.419 . S
C214 H218 0.930 . S
C215 C214 1.369 . S
C215 C224 1.429 . S
C216 C214 1.419 . S
C216 C217 1.363 . S
C216 H219 0.929 . S
C217 C216 1.363 . S
C217 C223 1.428 . S
H218 C214 0.930 . S
H219 C216 0.929 . S
S220 N221 1.613 . S
S220 N222 1.610 . S
N221 S220 1.613 . S
N221 C224 1.350 . S
N222 S220 1.610 . S
N222 C223 1.351 . S
C223 C217 1.428 . S
C223 N222 1.351 . S
C223 C224 1.434 . S
C224 C215 1.429 . S
C224 N221 1.350 . S
C224 C223 1.434 . S
C225 C226 1.369 . S
C225 C227 1.419 . S
C225 H229 0.930 . S
C226 C225 1.369 . S
C226 C235 1.429 . S
C227 C225 1.419 . S
C227 C228 1.363 . S
C227 H230 0.929 . S
C228 C227 1.363 . S
C228 C234 1.428 . S
H229 C225 0.930 . S
H230 C227 0.929 . S
S231 N232 1.613 . S
S231 N233 1.610 . S
N232 S231 1.613 . S
N232 C235 1.350 . S
N233 S231 1.610 . S
N233 C234 1.351 . S
C234 C228 1.428 . S
C234 N233 1.351 . S
C234 C235 1.434 . S
C235 C226 1.429 . S
C235 N232 1.350 . S
C235 C234 1.434 . S
C236 C237 1.369 . S
C236 C238 1.419 . S
C236 H240 0.930 . S
C237 C236 1.369 . S
C237 C246 1.429 . S
C238 C236 1.419 . S
C238 C239 1.363 . S
C238 H241 0.929 . S
C239 C238 1.363 . S
C239 C245 1.428 . S
H240 C236 0.930 . S
H241 C238 0.929 . S
S242 N243 1.613 . S
S242 N244 1.610 . S
N243 S242 1.613 . S
N243 C246 1.350 . S
N244 S242 1.610 . S
N244 C245 1.351 . S
C245 C239 1.428 . S
C245 N244 1.351 . S
C245 C246 1.434 . S
C246 C237 1.429 . S
C246 N243 1.350 . S
C246 C245 1.434 . S
C247 C248 1.369 . S
C247 C249 1.419 . S
C247 H251 0.930 . S
C248 C247 1.369 . S
C248 C257 1.429 . S
C249 C247 1.419 . S
C249 C250 1.363 . S
C249 H252 0.929 . S
C250 C249 1.363 . S
C250 C256 1.428 . S
H251 C247 0.930 . S
H252 C249 0.929 . S
S253 N254 1.613 . S
S253 N255 1.610 . S
N254 S253 1.613 . S
N254 C257 1.350 . S
N255 S253 1.610 . S
N255 C256 1.351 . S
C256 C250 1.428 . S
C256 N255 1.351 . S
C256 C257 1.434 . S
C257 C248 1.429 . S
C257 N254 1.350 . S
C257 C256 1.434 . S
C258 C259 1.369 . S
C258 C260 1.419 . S
C258 H262 0.930 . S
C259 C258 1.369 . S
C259 C268 1.429 . S
C260 C258 1.419 . S
C260 C261 1.363 . S
C260 H263 0.929 . S
C261 C260 1.363 . S
C261 C267 1.428 . S
H262 C258 0.930 . S
H263 C260 0.929 . S
S264 N265 1.613 . S
S264 N266 1.610 . S
N265 S264 1.613 . S
N265 C268 1.350 . S
N266 S264 1.610 . S
N266 C267 1.351 . S
C267 C261 1.428 . S
C267 N266 1.351 . S
C267 C268 1.434 . S
C268 C259 1.429 . S
C268 N265 1.350 . S
C268 C267 1.434 . S
C269 C270 1.369 . S
C269 C271 1.419 . S
C269 H273 0.930 . S
C270 C269 1.369 . S
C270 C279 1.429 . S
C271 C269 1.419 . S
C271 C272 1.363 . S
C271 H274 0.929 . S
C272 C271 1.363 . S
C272 C278 1.428 . S
H273 C269 0.930 . S
H274 C271 0.929 . S
S275 N276 1.613 . S
S275 N277 1.610 . S
N276 S275 1.613 . S
N276 C279 1.350 . S
N277 S275 1.610 . S
N277 C278 1.351 . S
C278 C272 1.428 . S
C278 N277 1.351 . S
C278 C279 1.434 . S
C279 C270 1.429 . S
C279 N276 1.350 . S
C279 C278 1.434 . S
C105 C8 1.510 . S
C107 C60 1.514 . S
C116 C21 1.511 . S
C118 C73 1.511 . S
C127 C86 1.514 . S
C129 C34 1.510 . S
C138 C99 1.509 . S
C140 C47 1.513 . S
C149 C0 1.254 . S
C151 C26 1.257 . S
C160 C13 1.257 . S
C162 C39 1.256 . S
C171 C78 1.257 . S
C173 C52 1.256 . S
C182 C65 1.257 . S
C184 C91 1.255 . S
C193 C75 1.355 . S
C195 C10 1.362 . S
C204 C23 1.363 . S
C206 C88 1.359 . S
C215 C101 1.360 . S
C217 C36 1.356 . S
C226 C49 1.356 . S
C228 C62 1.358 . S
C237 C83 1.268 . S
C239 C44 1.272 . S
C248 C5 1.268 . S
C250 C96 1.271 . S
C259 C18 1.275 . S
C261 C57 1.272 . S
C270 C70 1.278 . S
C272 C31 1.277 . S
