# Generated by pormake.
# Topology dft, (4)-cn, num edge types: 1
# Building blocks:
#     Node 0, Type 0, BuildingBlock: QUQFOY_clean_sbu_1, # of connection points: 4
#     Node 1, Type 0, BuildingBlock: QUQFOY_clean_sbu_1, # of connection points: 4
#     Node 2, Type 0, BuildingBlock: QUQFOY_clean_sbu_1, # of connection points: 4
#     Node 3, Type 0, BuildingBlock: QUQFOY_clean_sbu_1, # of connection points: 4
#     Node 4, Type 0, BuildingBlock: QUQFOY_clean_sbu_1, # of connection points: 4
#     Node 5, Type 0, BuildingBlock: QUQFOY_clean_sbu_1, # of connection points: 4
#     Node 6, Type 0, BuildingBlock: QUQFOY_clean_sbu_1, # of connection points: 4
#     Node 7, Type 0, BuildingBlock: QUQFOY_clean_sbu_1, # of connection points: 4
#     Edge 8, Type (0, 0), BuildingBlock: AJUNOK_clean_linker_0, # of connection points: 2
#     Edge 9, Type (0, 0), BuildingBlock: AJUNOK_clean_linker_0, # of connection points: 2
#     Edge 10, Type (0, 0), BuildingBlock: AJUNOK_clean_linker_0, # of connection points: 2
#     Edge 11, Type (0, 0), BuildingBlock: AJUNOK_clean_linker_0, # of connection points: 2
#     Edge 12, Type (0, 0), BuildingBlock: AJUNOK_clean_linker_0, # of connection points: 2
#     Edge 13, Type (0, 0), BuildingBlock: AJUNOK_clean_linker_0, # of connection points: 2
#     Edge 14, Type (0, 0), BuildingBlock: AJUNOK_clean_linker_0, # of connection points: 2
#     Edge 15, Type (0, 0), BuildingBlock: AJUNOK_clean_linker_0, # of connection points: 2
#     Edge 16, Type (0, 0), BuildingBlock: AJUNOK_clean_linker_0, # of connection points: 2
#     Edge 17, Type (0, 0), BuildingBlock: AJUNOK_clean_linker_0, # of connection points: 2
#     Edge 18, Type (0, 0), BuildingBlock: AJUNOK_clean_linker_0, # of connection points: 2
#     Edge 19, Type (0, 0), BuildingBlock: AJUNOK_clean_linker_0, # of connection points: 2
#     Edge 20, Type (0, 0), BuildingBlock: AJUNOK_clean_linker_0, # of connection points: 2
#     Edge 21, Type (0, 0), BuildingBlock: AJUNOK_clean_linker_0, # of connection points: 2
#     Edge 22, Type (0, 0), BuildingBlock: AJUNOK_clean_linker_0, # of connection points: 2
#     Edge 23, Type (0, 0), BuildingBlock: AJUNOK_clean_linker_0, # of connection points: 2
# Relax obj value: 0.221
# Max RMSD: 0.228
# Mean RMSD: 0.228
data_MOF--net-dft--node1-QUQFOY_clean_sbu_1--edge1-AJUNOK_clean_linker_0
_symmetry_space_group_name_H-M    P1
_symmetry_Int_Tables_number       1
_symmetry_cell_setting            triclinic
loop_
_symmetry_equiv_pos_as_xyz
'x, y, z'
_cell_length_a     27.585549
_cell_length_b     27.482071
_cell_length_c     29.915019
_cell_angle_alpha  89.899077
_cell_angle_beta   89.954544
_cell_angle_gamma 90.095283
loop_
_atom_site_label
_atom_site_type_symbol
_atom_site_fract_x
_atom_site_fract_y
_atom_site_fract_z
_atom_type_partial_charge
O0 O 0.34279 0.07075 0.10662 0.0
Cd1 Cd 0.34555 0.08085 0.1748 0.0
Cd2 Cd 0.27165 0.013 0.17449 0.0
O3 O 0.30245 1.00184 0.11256 0.0
O4 O 0.41285 0.10057 0.18981 0.0
O5 O 0.38082 0.02959 0.20933 0.0
C6 C 0.41817 0.05811 0.20771 0.0
C7 C 0.233 0.94412 0.20437 0.0
C8 C 0.32672 0.03183 0.08924 0.0
C9 C 0.25093 0.11904 0.20113 0.0
O10 O 0.2357 0.07764 0.18823 0.0
O11 O 0.29614 0.12758 0.20296 0.0
O12 O 0.21648 0.96632 0.16978 0.0
O13 O 0.27203 0.96083 0.22255 0.0
O14 O 0.97432 0.33508 0.60575 0.0
Cd15 Cd 0.96356 0.3396 0.67393 0.0
Cd16 Cd 0.02596 0.2582 0.67532 0.0
O17 O 0.02686 0.27458 0.60842 0.0
O18 O 0.94234 0.40763 0.6856 0.0
O19 O 0.01294 0.37832 0.70797 0.0
C20 C 0.98395 0.41503 0.70412 0.0
C21 C 0.09815 0.22482 0.70253 0.0
C22 C 1.00297 0.30581 0.58634 0.0
C23 C 0.92314 0.24663 0.71143 0.0
O24 O 0.96396 0.22794 0.70184 0.0
O25 O 0.91536 0.29159 0.70418 0.0
O26 O 0.07111 0.20185 0.67469 0.0
O27 O 0.0844 0.26738 0.71551 0.0
O28 O 0.68726 0.96273 0.10668 0.0
Cd29 Cd 0.68402 0.95647 0.17531 0.0
Cd30 Cd 0.75529 0.02817 0.17135 0.0
O31 O 0.7254 0.03327 0.10838 0.0
O32 O 0.61644 0.93964 0.19227 0.0
O33 O 0.65059 0.01098 0.20674 0.0
C34 C 0.61244 0.98351 0.20734 0.0
C35 C 0.80168 0.09498 0.19421 0.0
C36 C 0.7026 1.00068 0.08687 0.0
C37 C 0.77846 0.92462 0.20675 0.0
O38 O 0.79124 0.96598 0.19185 0.0
O39 O 0.73397 0.91276 0.20681 0.0
O40 O 0.81457 0.06753 0.16168 0.0
O41 O 0.76004 0.08693 0.21246 0.0
O42 O 0.06164 0.69832 0.61051 0.0
Cd43 Cd 0.06629 0.69185 0.67898 0.0
Cd44 Cd 0.99729 0.76615 0.67674 0.0
O45 O 0.99377 0.74055 0.61203 0.0
O46 O 0.08843 0.62441 0.69204 0.0
O47 O 0.0149 0.6513 0.70849 0.0
C48 C 0.04545 0.61565 0.70717 0.0
C49 C 0.92591 0.80116 0.7043 0.0
C50 C 0.02562 0.71697 0.59043 0.0
C51 C 0.09886 0.78642 0.71447 0.0
O52 O 0.05868 0.80206 0.69942 0.0
O53 O 0.10882 0.74135 0.71263 0.0
O54 O 0.95028 0.82095 0.67247 0.0
O55 O 0.94123 0.76028 0.72017 0.0
O56 O 0.3375 0.96226 0.87859 0.0
Cd57 Cd 0.33937 0.95619 0.80994 0.0
Cd58 Cd 0.2699 0.02635 0.81404 0.0
O59 O 0.30083 0.03332 0.87637 0.0
O60 O 0.40595 0.93563 0.79292 0.0
O61 O 0.37603 0.00869 0.77806 0.0
C62 C 0.4125 0.97912 0.77756 0.0
C63 C 0.23662 0.09696 0.78306 0.0
C64 C 0.32333 1.0007 0.89809 0.0
C65 C 0.24248 0.92444 0.78194 0.0
O66 O 0.22947 0.96517 0.79805 0.0
O67 O 0.28725 0.91394 0.77945 0.0
O68 O 0.21836 0.07677 0.81802 0.0
O69 O 0.27528 0.07805 0.76611 0.0
O70 O 0.0611 0.34012 0.37741 0.0
Cd71 Cd 0.07421 0.34946 0.31003 0.0
Cd72 Cd 0.00652 0.27038 0.30252 0.0
O73 O 1.00519 0.28287 0.37022 0.0
O74 O 0.0928 0.4186 0.30054 0.0
O75 O 0.02378 0.38678 0.27641 0.0
C76 C 0.05124 0.42458 0.28146 0.0
C77 C 0.9404 0.22672 0.27447 0.0
C78 C 0.03022 0.3112 0.3945 0.0
C79 C 0.11107 0.26095 0.26581 0.0
O80 O 0.06877 0.24465 0.27319 0.0
O81 O 0.12262 0.30367 0.27806 0.0
O82 O 0.97149 0.20747 0.30096 0.0
O83 O 0.94479 0.27237 0.26524 0.0
O84 O 0.68522 0.06749 0.87692 0.0
Cd85 Cd 0.68168 0.07526 0.8085 0.0
Cd86 Cd 0.75452 1.00664 0.80935 0.0
O87 O 0.72499 0.99827 0.87226 0.0
O88 O 0.61403 0.09366 0.79318 0.0
O89 O 0.64639 0.0223 0.77621 0.0
C90 C 0.60877 0.05035 0.77714 0.0
C91 C 0.79076 0.93609 0.78098 0.0
C92 C 0.70127 0.02898 0.89509 0.0
C93 C 0.77652 0.11098 0.77812 0.0
O94 O 0.79153 0.06983 0.79196 0.0
O95 O 0.73143 0.12028 0.77799 0.0
O96 O 0.80867 0.95911 0.81447 0.0
O97 O 0.75159 0.95284 0.76314 0.0
O98 O 0.96599 0.70197 0.37898 0.0
Cd99 Cd 0.95953 0.69668 0.31063 0.0
Cd100 Cd 0.0274 0.77209 0.31153 0.0
O101 O 0.03365 0.74466 0.37559 0.0
O102 O 0.93969 0.62882 0.29686 0.0
O103 O 0.0118 0.65926 0.27957 0.0
C104 C 0.98267 0.62232 0.28083 0.0
C105 C 0.09737 0.80909 0.28265 0.0
C106 C 1.00303 0.72004 0.39791 0.0
C107 C 0.92421 0.79036 0.2763 0.0
O108 O 0.96456 0.80666 0.29046 0.0
O109 O 0.915 0.74512 0.27829 0.0
O110 O 0.07354 0.82789 0.31524 0.0
O111 O 0.08228 0.76816 0.26672 0.0
C112 C 0.3336 0.06219 0.01088 0.0
C113 C 0.33251 0.0228 0.04087 0.0
C114 C 0.33212 0.05455 0.96463 0.0
C115 C 0.33053 1.00725 0.94667 0.0
H116 H 0.33329 0.09924 0.02319 0.0
H117 H 0.33121 0.08603 0.94279 0.0
S118 S 0.33215 0.89177 0.01105 0.0
N119 N 0.33309 0.93477 0.04952 0.0
N120 N 0.33134 0.92042 0.96248 0.0
C121 C 0.33219 0.96751 0.97626 0.0
C122 C 0.33284 0.9753 0.0234 0.0
C123 C 0.01431 0.35158 0.51479 0.0
C124 C 0.00849 0.30707 0.53742 0.0
C125 C 0.02242 0.35277 0.46846 0.0
C126 C 0.02345 0.30957 0.44333 0.0
H127 H 0.01365 0.38552 0.53315 0.0
H128 H 0.02714 0.38767 0.4521 0.0
S129 S 0.00887 0.18398 0.4869 0.0
N130 N 1.0042 0.219 0.53149 0.0
N131 N 0.01762 0.2213 0.44433 0.0
C132 C 0.01688 0.26499 0.46557 0.0
C133 C 0.00988 0.26372 0.51269 0.0
C134 C 0.69528 0.06073 0.97297 0.0
C135 C 0.69547 0.02089 0.94362 0.0
C136 C 0.6962 0.05375 0.01936 0.0
C137 C 0.6963 1.0067 0.03808 0.0
H138 H 0.69659 0.09757 0.96006 0.0
H139 H 0.69772 0.08553 0.0407 0.0
S140 S 0.69211 0.89035 0.97549 0.0
N141 N 0.69264 0.93279 0.93635 0.0
N142 N 0.69334 0.91968 0.0236 0.0
C143 C 0.69389 0.96658 0.0091 0.0
C144 C 0.69382 0.97368 0.96184 0.0
C145 C 0.96913 0.71412 0.47505 0.0
C146 C 0.0097 0.71464 0.44662 0.0
C147 C 0.9747 0.71394 0.5216 0.0
C148 C 0.02099 0.71307 0.54135 0.0
H149 H 0.93284 0.7157 0.46131 0.0
H150 H 0.94245 0.71499 0.54228 0.0
S151 S 0.1387 0.71027 0.48139 0.0
N152 N 0.09762 0.71195 0.44129 0.0
N153 N 0.10806 0.71034 0.52883 0.0
C154 C 0.0618 0.71146 0.51325 0.0
C155 C 0.05616 0.71265 0.46586 0.0
C156 C 0.47615 0.98981 0.22021 0.0
C157 C 0.4672 0.04017 0.21952 0.0
C158 C 0.52359 0.97165 0.21981 0.0
C159 C 0.56394 1.00312 0.21909 0.0
H160 H 0.44645 0.9641 0.21778 0.0
H161 H 0.5285 0.93264 0.21741 0.0
S162 S 0.55987 0.13792 0.22666 0.0
N163 N 0.50241 0.12112 0.22508 0.0
N164 N 0.59158 0.08707 0.22473 0.0
C165 C 0.55545 0.05344 0.22306 0.0
C166 C 0.50707 0.07194 0.22312 0.0
C167 C 0.96573 0.50365 0.71296 0.0
C168 C 0.99955 0.46537 0.7153 0.0
C169 C 0.9806 0.55246 0.71397 0.0
C170 C 0.02996 0.56496 0.71688 0.0
H171 H 0.92757 0.49599 0.70806 0.0
H172 H 0.95339 0.58042 0.7095 0.0
S173 S 0.13232 0.47892 0.73161 0.0
N174 N 0.08415 0.44361 0.72672 0.0
N175 N 0.11206 0.53529 0.72811 0.0
C176 C 0.06378 0.52721 0.7229 0.0
C177 C 0.04858 0.47744 0.7223 0.0
C178 C 0.51986 0.06403 0.7668 0.0
C179 C 0.55957 0.03188 0.76597 0.0
C180 C 0.47202 0.04673 0.76666 0.0
C181 C 0.46195 0.99653 0.76607 0.0
H182 H 0.52564 0.10286 0.7701 0.0
H183 H 0.44294 0.07289 0.77013 0.0
S184 S 0.5525 0.89745 0.75516 0.0
N185 N 0.5853 0.94766 0.7579 0.0
N186 N 0.49543 0.91519 0.75801 0.0
C187 C 0.50113 0.9642 0.76113 0.0
C188 C 0.54992 0.98185 0.76094 0.0
C189 C 0.06634 0.5139 0.27346 0.0
C190 C 0.03388 0.47439 0.27078 0.0
C191 C 0.04973 0.56207 0.27294 0.0
C192 C 0.99995 0.57261 0.27022 0.0
H193 H 0.10475 0.50766 0.27828 0.0
H194 H 0.07591 0.59102 0.27773 0.0
S195 S 0.9007 0.48289 0.25467 0.0
N196 N 0.95012 0.44944 0.25915 0.0
N197 N 0.91894 0.53996 0.25872 0.0
C198 C 0.96749 0.53369 0.26379 0.0
C199 C 0.98445 0.48458 0.26387 0.0
C200 C 0.19692 0.23337 0.25333 0.0
C201 C 0.14704 0.22793 0.2449 0.0
C202 C 0.23051 0.19858 0.23832 0.0
C203 C 0.21543 0.15713 0.2143 0.0
H204 H 0.20996 0.26371 0.27305 0.0
H205 H 0.26838 0.20361 0.2467 0.0
S206 S 0.08944 0.12965 0.17824 0.0
N207 N 0.08481 0.18044 0.20721 0.0
N208 N 0.14749 0.11543 0.17917 0.0
C209 C 0.16586 0.15265 0.20386 0.0
C210 C 0.13182 0.18793 0.21908 0.0
C211 C 0.89706 0.16763 0.74519 0.0
C212 C 0.8846 0.21454 0.73014 0.0
C213 C 0.86194 0.13502 0.76081 0.0
C214 C 0.8125 0.14755 0.76205 0.0
H215 H 0.93444 0.15561 0.74474 0.0
H216 H 0.87393 0.09939 0.77165 0.0
S217 S 0.76037 0.26632 0.72723 0.0
N218 N 0.81912 0.27231 0.71812 0.0
N219 N 0.75288 0.21089 0.7475 0.0
C220 C 0.79937 0.19462 0.74766 0.0
C221 C 0.8354 0.22809 0.7318 0.0
C222 C 0.83876 0.81083 0.25406 0.0
C223 C 0.88778 0.82466 0.25773 0.0
C224 C 0.80363 0.84324 0.2377 0.0
C225 C 0.81615 0.89069 0.224 0.0
H226 H 0.82721 0.77484 0.26443 0.0
H227 H 0.76638 0.8309 0.23582 0.0
S228 S 0.94023 0.94414 0.22503 0.0
N229 N 0.94729 0.88865 0.24501 0.0
N230 N 0.88182 0.94935 0.21438 0.0
C231 C 0.8653 0.90472 0.227 0.0
C232 C 0.90091 0.87182 0.24382 0.0
C233 C 0.18382 0.8088 0.73677 0.0
C234 C 0.13453 0.82146 0.73327 0.0
C235 C 0.2184 0.84217 0.75254 0.0
C236 C 0.20507 0.88945 0.76586 0.0
H237 H 0.19603 0.77307 0.72654 0.0
H238 H 0.25591 0.83072 0.75417 0.0
S239 S 0.08004 0.93994 0.76529 0.0
N240 N 0.07387 0.88413 0.7459 0.0
N241 N 0.13843 0.9466 0.77551 0.0
C242 C 0.15566 0.90225 0.76325 0.0
C243 C 0.12056 0.86838 0.74697 0.0
C244 C 0.8226 0.89061 0.71526 0.0
C245 C 0.81731 0.8945 0.7618 0.0
C246 C 0.85613 0.85808 0.69665 0.0
C247 C 0.8844 0.82745 0.72392 0.0
H248 H 0.80324 0.91513 0.69322 0.0
H249 H 0.86133 0.85826 0.66075 0.0
S250 S 0.8794 0.81956 0.84753 0.0
N251 N 0.83992 0.86245 0.8346 0.0
N252 N 0.9017 0.80012 0.79953 0.0
C253 C 0.87665 0.8284 0.7703 0.0
C254 C 0.84341 0.86232 0.78928 0.0
C255 C 0.19996 0.89983 0.27058 0.0
C256 C 0.20541 0.90326 0.22401 0.0
C257 C 0.16642 0.86733 0.28951 0.0
C258 C 0.13824 0.83627 0.26258 0.0
H259 H 0.21944 0.92447 0.29239 0.0
H260 H 0.16133 0.86769 0.32543 0.0
S261 S 0.14332 0.82735 0.13904 0.0
N262 N 0.18277 0.87051 0.15153 0.0
N263 N 0.12095 0.8083 0.18724 0.0
C264 C 0.14592 0.83698 0.21618 0.0
C265 C 0.17918 0.87085 0.19685 0.0
C266 C 0.14943 0.20145 0.76756 0.0
C267 C 0.14122 0.20061 0.72126 0.0
C268 C 0.18299 0.16969 0.78725 0.0
C269 C 0.21034 0.13715 0.76113 0.0
H270 H 0.12733 0.22412 0.78901 0.0
H271 H 0.18597 0.16904 0.82336 0.0
S272 S 0.20665 0.12583 0.63774 0.0
N273 N 0.16585 0.16789 0.64937 0.0
N274 N 0.23019 0.10945 0.68623 0.0
C275 C 0.20528 0.13895 0.71447 0.0
C276 C 0.17028 0.17037 0.69455 0.0
C277 C 0.85539 0.20748 0.24971 0.0
C278 C 0.90481 0.19528 0.25195 0.0
C279 C 0.82152 0.17491 0.23105 0.0
C280 C 0.83661 0.13018 0.2129 0.0
H281 H 0.84273 0.24155 0.2636 0.0
H282 H 0.78353 0.18479 0.23064 0.0
S283 S 0.96246 0.08261 0.20965 0.0
N284 N 0.96718 0.13612 0.23418 0.0
N285 N 0.90435 0.0759 0.19814 0.0
C286 C 0.88617 0.11844 0.21415 0.0
C287 C 0.92011 0.15079 0.23392 0.0
loop_
_geom_bond_atom_site_label_1
_geom_bond_atom_site_label_2
_geom_bond_distance
_geom_bond_site_symmetry_2
_ccdc_geom_bond_type
O0 Cd1 2.223 . S
O0 C8 1.315 . S
Cd1 O0 2.223 . S
Cd1 O4 2.297 . S
Cd1 O5 2.439 1_545 S
Cd1 O11 2.240 . S
Cd2 O3 2.240 1_565 S
Cd2 O10 2.223 1_565 S
Cd2 O12 2.297 . S
Cd2 O13 2.439 . S
O3 Cd2 2.240 1_545 S
O3 C8 1.279 . S
O4 Cd1 2.297 . S
O4 C6 1.247 . S
O5 Cd1 2.439 1_565 S
O5 C6 1.208 1_565 S
C6 O4 1.247 . S
C6 O5 1.208 1_545 S
C7 O12 1.247 . S
C7 O13 1.208 . S
C8 O0 1.315 . S
C8 O3 1.279 . S
C9 O10 1.315 . S
C9 O11 1.279 . S
O10 Cd2 2.223 1_545 S
O10 C9 1.315 . S
O11 Cd1 2.240 . S
O11 C9 1.279 . S
O12 Cd2 2.297 . S
O12 C7 1.247 . S
O13 Cd2 2.439 . S
O13 C7 1.208 . S
O14 Cd15 2.223 . S
O14 C22 1.315 . S
Cd15 O14 2.223 . S
Cd15 O18 2.297 . S
Cd15 O19 2.439 1_655 S
Cd15 O25 2.240 . S
Cd16 O17 2.240 . S
Cd16 O24 2.223 1_455 S
Cd16 O26 2.297 . S
Cd16 O27 2.439 . S
O17 Cd16 2.240 . S
O17 C22 1.279 1_455 S
O18 Cd15 2.297 . S
O18 C20 1.247 1_655 S
O19 Cd15 2.439 1_455 S
O19 C20 1.208 . S
C20 O18 1.247 1_455 S
C20 O19 1.208 . S
C21 O26 1.247 . S
C21 O27 1.208 . S
C22 O14 1.315 . S
C22 O17 1.279 1_655 S
C23 O24 1.315 . S
C23 O25 1.279 . S
O24 Cd16 2.223 1_655 S
O24 C23 1.315 . S
O25 Cd15 2.240 . S
O25 C23 1.279 . S
O26 Cd16 2.297 . S
O26 C21 1.247 . S
O27 Cd16 2.439 . S
O27 C21 1.208 . S
O28 Cd29 2.223 . S
O28 C36 1.315 . S
Cd29 O28 2.223 . S
Cd29 O32 2.297 . S
Cd29 O33 2.439 1_565 S
Cd29 O39 2.240 . S
Cd30 O31 2.240 . S
Cd30 O38 2.223 1_545 S
Cd30 O40 2.297 . S
Cd30 O41 2.439 . S
O31 Cd30 2.240 . S
O31 C36 1.279 1_545 S
O32 Cd29 2.297 . S
O32 C34 1.247 1_565 S
O33 Cd29 2.439 1_545 S
O33 C34 1.208 . S
C34 O32 1.247 1_545 S
C34 O33 1.208 . S
C35 O40 1.247 . S
C35 O41 1.208 . S
C36 O28 1.315 . S
C36 O31 1.279 1_565 S
C37 O38 1.315 . S
C37 O39 1.279 . S
O38 Cd30 2.223 1_565 S
O38 C37 1.315 . S
O39 Cd29 2.240 . S
O39 C37 1.279 . S
O40 Cd30 2.297 . S
O40 C35 1.247 . S
O41 Cd30 2.439 . S
O41 C35 1.208 . S
O42 Cd43 2.223 . S
O42 C50 1.315 . S
Cd43 O42 2.223 . S
Cd43 O46 2.297 . S
Cd43 O47 2.439 1_455 S
Cd43 O53 2.240 . S
Cd44 O45 2.240 1_655 S
Cd44 O52 2.223 1_655 S
Cd44 O54 2.297 . S
Cd44 O55 2.439 . S
O45 Cd44 2.240 1_455 S
O45 C50 1.279 . S
O46 Cd43 2.297 . S
O46 C48 1.247 . S
O47 Cd43 2.439 1_655 S
O47 C48 1.208 1_655 S
C48 O46 1.247 . S
C48 O47 1.208 1_455 S
C49 O54 1.247 . S
C49 O55 1.208 . S
C50 O42 1.315 . S
C50 O45 1.279 . S
C51 O52 1.315 . S
C51 O53 1.279 . S
O52 Cd44 2.223 1_455 S
O52 C51 1.315 . S
O53 Cd43 2.240 . S
O53 C51 1.279 . S
O54 Cd44 2.297 . S
O54 C49 1.247 . S
O55 Cd44 2.439 . S
O55 C49 1.208 . S
O56 Cd57 2.223 . S
O56 C64 1.315 . S
Cd57 O56 2.223 . S
Cd57 O60 2.297 . S
Cd57 O61 2.439 1_565 S
Cd57 O67 2.240 . S
Cd58 O59 2.240 . S
Cd58 O66 2.223 1_545 S
Cd58 O68 2.297 . S
Cd58 O69 2.439 . S
O59 Cd58 2.240 . S
O59 C64 1.279 1_545 S
O60 Cd57 2.297 . S
O60 C62 1.247 1_565 S
O61 Cd57 2.439 1_545 S
O61 C62 1.208 . S
C62 O60 1.247 1_545 S
C62 O61 1.208 . S
C63 O68 1.247 . S
C63 O69 1.208 . S
C64 O56 1.315 . S
C64 O59 1.279 1_565 S
C65 O66 1.315 . S
C65 O67 1.279 . S
O66 Cd58 2.223 1_565 S
O66 C65 1.315 . S
O67 Cd57 2.240 . S
O67 C65 1.279 . S
O68 Cd58 2.297 . S
O68 C63 1.247 . S
O69 Cd58 2.439 . S
O69 C63 1.208 . S
O70 Cd71 2.223 . S
O70 C78 1.315 . S
Cd71 O70 2.223 . S
Cd71 O74 2.297 . S
Cd71 O75 2.439 1_455 S
Cd71 O81 2.240 . S
Cd72 O73 2.240 1_655 S
Cd72 O80 2.223 1_655 S
Cd72 O82 2.297 . S
Cd72 O83 2.439 . S
O73 Cd72 2.240 1_455 S
O73 C78 1.279 . S
O74 Cd71 2.297 . S
O74 C76 1.247 . S
O75 Cd71 2.439 1_655 S
O75 C76 1.208 1_655 S
C76 O74 1.247 . S
C76 O75 1.208 1_455 S
C77 O82 1.247 . S
C77 O83 1.208 . S
C78 O70 1.315 . S
C78 O73 1.279 . S
C79 O80 1.315 . S
C79 O81 1.279 . S
O80 Cd72 2.223 1_455 S
O80 C79 1.315 . S
O81 Cd71 2.240 . S
O81 C79 1.279 . S
O82 Cd72 2.297 . S
O82 C77 1.247 . S
O83 Cd72 2.439 . S
O83 C77 1.208 . S
O84 Cd85 2.223 . S
O84 C92 1.315 . S
Cd85 O84 2.223 . S
Cd85 O88 2.297 . S
Cd85 O89 2.439 1_545 S
Cd85 O95 2.240 . S
Cd86 O87 2.240 1_565 S
Cd86 O94 2.223 1_565 S
Cd86 O96 2.297 . S
Cd86 O97 2.439 . S
O87 Cd86 2.240 1_545 S
O87 C92 1.279 . S
O88 Cd85 2.297 . S
O88 C90 1.247 . S
O89 Cd85 2.439 1_565 S
O89 C90 1.208 1_565 S
C90 O88 1.247 . S
C90 O89 1.208 1_545 S
C91 O96 1.247 . S
C91 O97 1.208 . S
C92 O84 1.315 . S
C92 O87 1.279 . S
C93 O94 1.315 . S
C93 O95 1.279 . S
O94 Cd86 2.223 1_545 S
O94 C93 1.315 . S
O95 Cd85 2.240 . S
O95 C93 1.279 . S
O96 Cd86 2.297 . S
O96 C91 1.247 . S
O97 Cd86 2.439 . S
O97 C91 1.208 . S
O98 Cd99 2.223 . S
O98 C106 1.315 . S
Cd99 O98 2.223 . S
Cd99 O102 2.297 . S
Cd99 O103 2.439 1_655 S
Cd99 O109 2.240 . S
Cd100 O101 2.240 . S
Cd100 O108 2.223 1_455 S
Cd100 O110 2.297 . S
Cd100 O111 2.439 . S
O101 Cd100 2.240 . S
O101 C106 1.279 1_455 S
O102 Cd99 2.297 . S
O102 C104 1.247 1_655 S
O103 Cd99 2.439 1_455 S
O103 C104 1.208 . S
C104 O102 1.247 1_455 S
C104 O103 1.208 . S
C105 O110 1.247 . S
C105 O111 1.208 . S
C106 O98 1.315 . S
C106 O101 1.279 1_655 S
C107 O108 1.315 . S
C107 O109 1.279 . S
O108 Cd100 2.223 1_655 S
O108 C107 1.315 . S
O109 Cd99 2.240 . S
O109 C107 1.279 . S
O110 Cd100 2.297 . S
O110 C105 1.247 . S
O111 Cd100 2.439 . S
O111 C105 1.208 . S
C112 C113 1.369 . S
C112 C114 1.419 1_554 S
C112 H116 0.930 . S
C113 C112 1.369 . S
C113 C122 1.429 1_545 S
C114 C112 1.419 1_556 S
C114 C115 1.363 1_545 S
C114 H117 0.929 . S
C115 C114 1.363 1_565 S
C115 C121 1.428 . S
H116 C112 0.930 . S
H117 C114 0.929 . S
S118 N119 1.613 . S
S118 N120 1.610 1_554 S
N119 S118 1.613 . S
N119 C122 1.350 . S
N120 S118 1.610 1_556 S
N120 C121 1.351 . S
C121 C115 1.428 . S
C121 N120 1.351 . S
C121 C122 1.434 1_556 S
C122 C113 1.429 1_565 S
C122 N119 1.350 . S
C122 C121 1.434 1_554 S
C123 C124 1.369 1_455 S
C123 C125 1.419 . S
C123 H127 0.930 . S
C124 C123 1.369 1_655 S
C124 C133 1.429 . S
C125 C123 1.419 . S
C125 C126 1.363 . S
C125 H128 0.929 . S
C126 C125 1.363 . S
C126 C132 1.428 1_455 S
H127 C123 0.930 . S
H128 C125 0.929 . S
S129 N130 1.613 . S
S129 N131 1.610 . S
N130 S129 1.613 . S
N130 C133 1.350 . S
N131 S129 1.610 . S
N131 C132 1.351 . S
C132 C126 1.428 1_655 S
C132 N131 1.351 . S
C132 C133 1.434 . S
C133 C124 1.429 . S
C133 N130 1.350 . S
C133 C132 1.434 . S
C134 C135 1.369 . S
C134 C136 1.419 1_556 S
C134 H138 0.930 . S
C135 C134 1.369 . S
C135 C144 1.429 1_545 S
C136 C134 1.419 1_554 S
C136 C137 1.363 1_545 S
C136 H139 0.929 . S
C137 C136 1.363 1_565 S
C137 C143 1.428 . S
H138 C134 0.930 . S
H139 C136 0.929 . S
S140 N141 1.613 . S
S140 N142 1.610 1_556 S
N141 S140 1.613 . S
N141 C144 1.350 . S
N142 S140 1.610 1_554 S
N142 C143 1.351 . S
C143 C137 1.428 . S
C143 N142 1.351 . S
C143 C144 1.434 1_554 S
C144 C135 1.429 1_565 S
C144 N141 1.350 . S
C144 C143 1.434 1_556 S
C145 C146 1.369 . S
C145 C147 1.419 . S
C145 H149 0.930 . S
C146 C145 1.369 . S
C146 C155 1.429 1_655 S
C147 C145 1.419 . S
C147 C148 1.363 1_655 S
C147 H150 0.929 . S
C148 C147 1.363 1_455 S
C148 C154 1.428 . S
H149 C145 0.930 . S
H150 C147 0.929 . S
S151 N152 1.613 . S
S151 N153 1.610 . S
N152 S151 1.613 . S
N152 C155 1.350 . S
N153 S151 1.610 . S
N153 C154 1.351 . S
C154 C148 1.428 . S
C154 N153 1.351 . S
C154 C155 1.434 . S
C155 C146 1.429 1_455 S
C155 N152 1.350 . S
C155 C154 1.434 . S
C156 C157 1.376 . S
C156 C158 1.419 . S
C156 H160 0.930 . S
C157 C156 1.376 . S
C157 C166 1.418 1_565 S
C158 C156 1.419 . S
C158 C159 1.363 1_565 S
C158 H161 0.929 . S
C159 C158 1.363 1_545 S
C159 C165 1.428 . S
H160 C156 0.930 . S
H161 C158 0.929 . S
S162 N163 1.613 . S
S162 N164 1.610 . S
N163 S162 1.613 . S
N163 C166 1.350 . S
N164 S162 1.610 . S
N164 C165 1.351 . S
C165 C159 1.428 . S
C165 N164 1.351 . S
C165 C166 1.434 . S
C166 C157 1.418 1_545 S
C166 N163 1.350 . S
C166 C165 1.434 . S
C167 C168 1.369 . S
C167 C169 1.419 . S
C167 H171 0.930 . S
C168 C167 1.369 . S
C168 C177 1.429 . S
C169 C167 1.419 . S
C169 C170 1.363 1_455 S
C169 H172 0.929 1_455 S
C170 C169 1.363 1_655 S
C170 C176 1.428 1_655 S
H171 C167 0.930 . S
H172 C169 0.929 1_655 S
S173 N174 1.613 . S
S173 N175 1.610 . S
N174 S173 1.613 . S
N174 C177 1.350 . S
N175 S173 1.610 . S
N175 C176 1.351 . S
C176 C170 1.428 1_455 S
C176 N175 1.351 . S
C176 C177 1.434 . S
C177 C168 1.429 . S
C177 N174 1.350 . S
C177 C176 1.434 . S
C178 C179 1.369 1_545 S
C178 C180 1.419 . S
C178 H182 0.930 . S
C179 C178 1.369 1_565 S
C179 C188 1.429 . S
C180 C178 1.419 . S
C180 C181 1.363 . S
C180 H183 0.929 . S
C181 C180 1.363 . S
C181 C187 1.428 1_545 S
H182 C178 0.930 . S
H183 C180 0.929 . S
S184 N185 1.613 . S
S184 N186 1.610 . S
N185 S184 1.613 . S
N185 C188 1.350 . S
N186 S184 1.610 . S
N186 C187 1.351 . S
C187 C181 1.428 1_565 S
C187 N186 1.351 . S
C187 C188 1.434 . S
C188 C179 1.429 . S
C188 N185 1.350 . S
C188 C187 1.434 . S
C189 C190 1.365 1_455 S
C189 C191 1.419 . S
C189 H193 0.930 . S
C190 C189 1.365 1_655 S
C190 C199 1.428 1_655 S
C191 C189 1.419 . S
C191 C192 1.363 . S
C191 H194 0.929 . S
C192 C191 1.363 . S
C192 C198 1.428 . S
H193 C189 0.930 . S
H194 C191 0.929 . S
S195 N196 1.613 1_455 S
S195 N197 1.610 . S
N196 S195 1.613 1_655 S
N196 C199 1.347 1_655 S
N197 S195 1.610 . S
N197 C198 1.351 . S
C198 C192 1.428 . S
C198 N197 1.351 . S
C198 C199 1.438 . S
C199 C190 1.428 1_455 S
C199 N196 1.347 1_455 S
C199 C198 1.438 . S
C200 C201 1.369 . S
C200 C202 1.419 . S
C200 H204 0.930 . S
C201 C200 1.369 . S
C201 C210 1.429 . S
C202 C200 1.419 . S
C202 C203 1.363 . S
C202 H205 0.929 . S
C203 C202 1.363 . S
C203 C209 1.428 . S
H204 C200 0.930 . S
H205 C202 0.929 . S
S206 N207 1.613 . S
S206 N208 1.610 . S
N207 S206 1.613 . S
N207 C210 1.350 . S
N208 S206 1.610 . S
N208 C209 1.351 . S
C209 C203 1.428 . S
C209 N208 1.351 . S
C209 C210 1.434 . S
C210 C201 1.429 . S
C210 N207 1.350 . S
C210 C209 1.434 . S
C211 C212 1.369 . S
C211 C213 1.419 . S
C211 H215 0.930 . S
C212 C211 1.369 . S
C212 C221 1.429 . S
C213 C211 1.419 . S
C213 C214 1.363 . S
C213 H216 0.929 . S
C214 C213 1.363 . S
C214 C220 1.428 . S
H215 C211 0.930 . S
H216 C213 0.929 . S
S217 N218 1.613 . S
S217 N219 1.610 . S
N218 S217 1.613 . S
N218 C221 1.350 . S
N219 S217 1.610 . S
N219 C220 1.351 . S
C220 C214 1.428 . S
C220 N219 1.351 . S
C220 C221 1.434 . S
C221 C212 1.429 . S
C221 N218 1.350 . S
C221 C220 1.434 . S
C222 C223 1.369 . S
C222 C224 1.419 . S
C222 H226 0.930 . S
C223 C222 1.369 . S
C223 C232 1.429 . S
C224 C222 1.419 . S
C224 C225 1.363 . S
C224 H227 0.929 . S
C225 C224 1.363 . S
C225 C231 1.428 . S
H226 C222 0.930 . S
H227 C224 0.929 . S
S228 N229 1.613 . S
S228 N230 1.610 . S
N229 S228 1.613 . S
N229 C232 1.350 . S
N230 S228 1.610 . S
N230 C231 1.351 . S
C231 C225 1.428 . S
C231 N230 1.351 . S
C231 C232 1.434 . S
C232 C223 1.429 . S
C232 N229 1.350 . S
C232 C231 1.434 . S
C233 C234 1.369 . S
C233 C235 1.419 . S
C233 H237 0.930 . S
C234 C233 1.369 . S
C234 C243 1.429 . S
C235 C233 1.419 . S
C235 C236 1.363 . S
C235 H238 0.929 . S
C236 C235 1.363 . S
C236 C242 1.428 . S
H237 C233 0.930 . S
H238 C235 0.929 . S
S239 N240 1.613 . S
S239 N241 1.610 . S
N240 S239 1.613 . S
N240 C243 1.350 . S
N241 S239 1.610 . S
N241 C242 1.351 . S
C242 C236 1.428 . S
C242 N241 1.351 . S
C242 C243 1.434 . S
C243 C234 1.429 . S
C243 N240 1.350 . S
C243 C242 1.434 . S
C244 C245 1.369 . S
C244 C246 1.419 . S
C244 H248 0.930 . S
C245 C244 1.369 . S
C245 C254 1.429 . S
C246 C244 1.419 . S
C246 C247 1.363 . S
C246 H249 0.929 . S
C247 C246 1.363 . S
C247 C253 1.428 . S
H248 C244 0.930 . S
H249 C246 0.929 . S
S250 N251 1.613 . S
S250 N252 1.610 . S
N251 S250 1.613 . S
N251 C254 1.350 . S
N252 S250 1.610 . S
N252 C253 1.351 . S
C253 C247 1.428 . S
C253 N252 1.351 . S
C253 C254 1.434 . S
C254 C245 1.429 . S
C254 N251 1.350 . S
C254 C253 1.434 . S
C255 C256 1.369 . S
C255 C257 1.419 . S
C255 H259 0.930 . S
C256 C255 1.369 . S
C256 C265 1.429 . S
C257 C255 1.419 . S
C257 C258 1.363 . S
C257 H260 0.929 . S
C258 C257 1.363 . S
C258 C264 1.428 . S
H259 C255 0.930 . S
H260 C257 0.929 . S
S261 N262 1.613 . S
S261 N263 1.610 . S
N262 S261 1.613 . S
N262 C265 1.350 . S
N263 S261 1.610 . S
N263 C264 1.351 . S
C264 C258 1.428 . S
C264 N263 1.351 . S
C264 C265 1.434 . S
C265 C256 1.429 . S
C265 N262 1.350 . S
C265 C264 1.434 . S
C266 C267 1.369 . S
C266 C268 1.419 . S
C266 H270 0.930 . S
C267 C266 1.369 . S
C267 C276 1.429 . S
C268 C266 1.419 . S
C268 C269 1.363 . S
C268 H271 0.929 . S
C269 C268 1.363 . S
C269 C275 1.428 . S
H270 C266 0.930 . S
H271 C268 0.929 . S
S272 N273 1.613 . S
S272 N274 1.610 . S
N273 S272 1.613 . S
N273 C276 1.350 . S
N274 S272 1.610 . S
N274 C275 1.351 . S
C275 C269 1.428 . S
C275 N274 1.351 . S
C275 C276 1.434 . S
C276 C267 1.429 . S
C276 N273 1.350 . S
C276 C275 1.434 . S
C277 C278 1.369 . S
C277 C279 1.419 . S
C277 H281 0.930 . S
C278 C277 1.369 . S
C278 C287 1.429 . S
C279 C277 1.419 . S
C279 C280 1.363 . S
C279 H282 0.929 . S
C280 C279 1.363 . S
C280 C286 1.428 . S
H281 C277 0.930 . S
H282 C279 0.929 . S
S283 N284 1.613 . S
S283 N285 1.610 . S
N284 S283 1.613 . S
N284 C287 1.350 . S
N285 S283 1.610 . S
N285 C286 1.351 . S
C286 C280 1.428 . S
C286 N285 1.351 . S
C286 C287 1.434 . S
C287 C278 1.429 . S
C287 N284 1.350 . S
C287 C286 1.434 . S
C113 C8 1.786 . S
C115 C64 1.791 . S
C124 C22 1.791 . S
C126 C78 1.790 . S
C135 C92 1.786 . S
C137 C36 1.789 . S
C146 C106 1.786 . S
C148 C50 1.789 . S
C157 C6 1.315 1_565 S
C159 C34 1.322 . S
C168 C20 1.319 . S
C170 C48 1.322 1_655 S
C179 C90 1.327 1_565 S
C181 C62 1.316 . S
C190 C76 1.317 1_655 S
C192 C104 1.322 . S
C201 C79 1.982 . S
C203 C9 1.985 . S
C212 C23 1.989 . S
C214 C93 1.985 . S
C223 C107 1.983 . S
C225 C37 1.986 . S
C234 C51 1.982 . S
C236 C65 1.986 . S
C245 C91 1.091 . S
C247 C49 1.106 . S
C256 C7 1.090 . S
C258 C105 1.107 . S
C267 C21 1.091 . S
C269 C63 1.105 . S
C278 C77 1.102 . S
C280 C35 1.096 . S
