# Generated by pormake.
# Topology dft, (4)-cn, num edge types: 1
# Building blocks:
#     Node 0, Type 0, BuildingBlock: QUQFOY_clean_sbu_3, # of connection points: 4
#     Node 1, Type 0, BuildingBlock: QUQFOY_clean_sbu_3, # of connection points: 4
#     Node 2, Type 0, BuildingBlock: QUQFOY_clean_sbu_3, # of connection points: 4
#     Node 3, Type 0, BuildingBlock: QUQFOY_clean_sbu_3, # of connection points: 4
#     Node 4, Type 0, BuildingBlock: QUQFOY_clean_sbu_3, # of connection points: 4
#     Node 5, Type 0, BuildingBlock: QUQFOY_clean_sbu_3, # of connection points: 4
#     Node 6, Type 0, BuildingBlock: QUQFOY_clean_sbu_3, # of connection points: 4
#     Node 7, Type 0, BuildingBlock: QUQFOY_clean_sbu_3, # of connection points: 4
#     Edge 8, Type (0, 0), BuildingBlock: KIFKEQ_clean_linker_1, # of connection points: 2
#     Edge 9, Type (0, 0), BuildingBlock: KIFKEQ_clean_linker_1, # of connection points: 2
#     Edge 10, Type (0, 0), BuildingBlock: KIFKEQ_clean_linker_1, # of connection points: 2
#     Edge 11, Type (0, 0), BuildingBlock: KIFKEQ_clean_linker_1, # of connection points: 2
#     Edge 12, Type (0, 0), BuildingBlock: KIFKEQ_clean_linker_1, # of connection points: 2
#     Edge 13, Type (0, 0), BuildingBlock: KIFKEQ_clean_linker_1, # of connection points: 2
#     Edge 14, Type (0, 0), BuildingBlock: KIFKEQ_clean_linker_1, # of connection points: 2
#     Edge 15, Type (0, 0), BuildingBlock: KIFKEQ_clean_linker_1, # of connection points: 2
#     Edge 16, Type (0, 0), BuildingBlock: KIFKEQ_clean_linker_1, # of connection points: 2
#     Edge 17, Type (0, 0), BuildingBlock: KIFKEQ_clean_linker_1, # of connection points: 2
#     Edge 18, Type (0, 0), BuildingBlock: KIFKEQ_clean_linker_1, # of connection points: 2
#     Edge 19, Type (0, 0), BuildingBlock: KIFKEQ_clean_linker_1, # of connection points: 2
#     Edge 20, Type (0, 0), BuildingBlock: KIFKEQ_clean_linker_1, # of connection points: 2
#     Edge 21, Type (0, 0), BuildingBlock: KIFKEQ_clean_linker_1, # of connection points: 2
#     Edge 22, Type (0, 0), BuildingBlock: KIFKEQ_clean_linker_1, # of connection points: 2
#     Edge 23, Type (0, 0), BuildingBlock: KIFKEQ_clean_linker_1, # of connection points: 2
# Relax obj value: 0.179
# Max RMSD: 0.170
# Mean RMSD: 0.170
data_MOF--net-dft--node1-QUQFOY_clean_sbu_3--edge1-KIFKEQ_clean_linker_1
_symmetry_space_group_name_H-M    P1
_symmetry_Int_Tables_number       1
_symmetry_cell_setting            triclinic
loop_
_symmetry_equiv_pos_as_xyz
'x, y, z'
_cell_length_a     36.311054
_cell_length_b     36.381221
_cell_length_c     42.878502
_cell_angle_alpha  90.012175
_cell_angle_beta   89.953652
_cell_angle_gamma 90.092444
loop_
_atom_site_label
_atom_site_type_symbol
_atom_site_fract_x
_atom_site_fract_y
_atom_site_fract_z
_atom_type_partial_charge
C0 C 0.2698 0.96522 0.17507 0.0
O1 O 0.25429 0.97041 0.14892 0.0
Cd2 Cd 0.26643 0.02181 0.11704 0.0
O3 O 0.29498 -0.0132 0.18501 0.0
Cd4 Cd 0.33119 0.04038 0.16463 0.0
C5 C 0.25409 0.09203 0.17039 0.0
O6 O 0.33159 0.01422 0.11329 0.0
O7 O 0.35423 0.06862 0.11505 0.0
O8 O 0.38263 0.01159 0.19203 0.0
C9 C 0.34825 0.03975 0.09929 0.0
O10 O 0.24159 0.07362 0.14744 0.0
C11 C 0.39823 0.04167 0.19921 0.0
O12 O 0.28602 0.08558 0.18118 0.0
O13 O 0.3819 0.07104 0.1913 0.0
C14 C 0.10511 0.26475 0.67179 0.0
O15 O 0.09773 0.24917 0.64605 0.0
Cd16 Cd 0.04488 0.26258 0.61616 0.0
O17 O 0.08507 0.29074 0.68243 0.0
Cd18 Cd 0.03162 0.32849 0.66417 0.0
C19 C 0.97699 0.25342 0.67225 0.0
O20 O 0.0536 0.32732 0.61163 0.0
O21 O -1e-05 0.3515 0.61599 0.0
O22 O 0.06416 0.38181 0.68479 0.0
C23 C 0.02757 0.34448 0.59884 0.0
O24 O -0.00626 0.24019 0.64869 0.0
C25 C 0.03616 0.39621 0.69762 0.0
O26 O -0.01471 0.28507 0.68272 0.0
O27 O 0.00618 0.37829 0.69597 0.0
C28 C 0.79886 0.09915 0.17284 0.0
O29 O 0.81481 0.08996 0.14766 0.0
Cd30 Cd 0.79825 0.03791 0.11773 0.0
O31 O 0.77162 0.0808 0.18353 0.0
Cd32 Cd 0.73339 0.02748 0.16606 0.0
C33 C 0.80671 0.97034 0.17322 0.0
O34 O 0.73389 0.05079 0.11381 0.0
O35 O 0.70875 -0.00235 0.11752 0.0
O36 O 0.68261 0.05927 0.1922 0.0
C37 C 0.7156 0.02563 0.10088 0.0
O38 O 0.81919 -0.0155 0.1482 0.0
C39 C 0.66633 0.03 0.20064 0.0
O40 O 0.77673 0.98183 0.185 0.0
O41 O 0.68208 -0.00014 0.1941 0.0
C42 C 0.96078 0.79594 0.67387 0.0
O43 O 0.96732 0.81113 0.6478 0.0
Cd44 Cd 0.01955 0.79761 0.61708 0.0
O45 O 0.98123 0.77018 0.68431 0.0
Cd46 Cd 0.03418 0.73233 0.66514 0.0
C47 C 0.08856 0.80766 0.67201 0.0
O48 O 0.01129 0.73277 0.6128 0.0
O49 O 0.06534 0.70951 0.61673 0.0
O50 O 0.0022 0.67901 0.68633 0.0
C51 C 0.03743 0.71589 0.59984 0.0
O52 O 0.07127 0.82055 0.64861 0.0
C53 C 0.03049 0.66467 0.69868 0.0
O54 O 0.08064 0.77608 0.68283 0.0
O55 O 0.06039 0.68266 0.69659 0.0
C56 C 0.26817 0.10269 0.79277 0.0
O57 O 0.25262 0.09603 0.81869 0.0
Cd58 Cd 0.26564 0.0438 0.84934 0.0
O59 O 0.29398 0.08224 0.78236 0.0
Cd60 Cd 0.33152 0.02904 0.8014 0.0
C61 C 0.25588 0.975 0.79422 0.0
O62 O 0.33056 0.05209 0.85353 0.0
O63 O 0.35424 -0.00174 0.85012 0.0
O64 O 0.3849 0.06104 0.78024 0.0
C65 C 0.34746 0.02624 0.86679 0.0
O66 O 0.24283 -0.0077 0.81756 0.0
C67 C 0.39942 0.03283 0.76794 0.0
O68 O 0.28764 0.9828 0.78355 0.0
O69 O 0.38152 0.00292 0.77009 0.0
C70 C 0.95712 0.26899 0.2913 0.0
O71 O 0.96345 0.25353 0.31728 0.0
Cd72 Cd 0.01568 0.26622 0.34818 0.0
O73 O 0.97783 0.29468 0.28098 0.0
Cd74 Cd 0.03107 0.3319 0.30063 0.0
C75 C 0.08463 0.25624 0.29325 0.0
O76 O 0.00786 0.33106 0.35286 0.0
O77 O 0.06216 0.354 0.34935 0.0
O78 O 0.00077 0.38605 0.27932 0.0
C79 C 0.03407 0.34759 0.36608 0.0
O80 O 0.06727 0.24305 0.31653 0.0
C81 C 0.02962 0.3996 0.26712 0.0
O82 O 0.07695 0.28801 0.28281 0.0
O83 O 0.05895 0.38084 0.26946 0.0
C84 C 0.79978 0.95991 0.79608 0.0
O85 O 0.81494 0.96706 0.82205 0.0
Cd86 Cd 0.80051 0.01939 0.85222 0.0
O87 O 0.77377 0.97986 0.78538 0.0
Cd88 Cd 0.73533 0.03277 0.80365 0.0
C89 C 0.81036 0.08778 0.79686 0.0
O90 O 0.7356 0.01013 0.85597 0.0
O91 O 0.71121 0.06358 0.85185 0.0
O92 O 0.68257 0.00014 0.78208 0.0
C93 C 0.71797 0.03583 0.86878 0.0
O94 O 0.8233 0.07091 0.82044 0.0
C95 C 0.66812 0.02813 0.76939 0.0
O96 O 0.77888 0.07943 0.78597 0.0
O97 O 0.68578 0.05817 0.77154 0.0
C98 C 0.1068 0.8016 0.29572 0.0
O99 O 0.09696 0.81724 0.32084 0.0
Cd100 Cd 0.0448 0.79972 0.35055 0.0
O101 O 0.08926 0.77392 0.28496 0.0
Cd102 Cd 0.03688 0.73436 0.30223 0.0
C103 C 0.97759 0.806 0.29452 0.0
O104 O 0.05786 0.73564 0.35509 0.0
O105 O 0.00507 0.70984 0.34996 0.0
O106 O 0.06985 0.68138 0.28133 0.0
C107 C 0.03231 0.71721 0.36738 0.0
O108 O -0.00892 0.81897 0.31963 0.0
C109 C 0.04196 0.6673 0.26803 0.0
O110 O -0.00985 0.77641 0.28292 0.0
O111 O 0.01207 0.68526 0.26961 0.0
H112 H 0.33557 0.98107 0.06165 0.0
H113 H 0.37871 0.09185 0.06083 0.0
H114 H 0.34269 0.97746 0.00546 0.0
H115 H 0.38675 0.08789 0.00428 0.0
H116 H 0.33638 0.0844 0.90512 0.0
H117 H 0.34387 0.08716 0.96119 0.0
H118 H 0.38456 0.97557 0.96132 0.0
H119 H 0.37619 0.97252 0.90468 0.0
C120 C 0.34709 0.00453 0.04949 0.0
C121 C 0.35609 0.03698 0.06559 0.0
C122 C 0.35153 0.00228 0.01726 0.0
C123 C 0.36515 0.03241 0.00036 0.0
C124 C 0.3757 0.06436 0.01664 0.0
C125 C 0.3712 0.06663 0.04899 0.0
C126 C 0.3472 0.06047 0.91699 0.0
C127 C 0.35526 0.02804 0.90054 0.0
C128 C 0.35189 0.06223 0.94918 0.0
C129 C 0.3648 0.03161 0.96576 0.0
C130 C 0.37417 -0.00049 0.94919 0.0
C131 C 0.36948 -0.00224 0.91681 0.0
H132 H 0.97356 0.37489 0.5622 0.0
H133 H 0.0845 0.33217 0.55928 0.0
H134 H 0.97533 0.3838 0.50561 0.0
H135 H 0.08595 0.34021 0.50319 0.0
H136 H 0.08841 0.37611 0.40348 0.0
H137 H 0.08655 0.38343 0.46021 0.0
H138 H 0.97484 0.34225 0.46136 0.0
H139 H 0.97641 0.3358 0.40509 0.0
C140 C -0.00168 0.36765 0.54953 0.0
C141 C 0.02869 0.35246 0.5651 0.0
C142 C -0.00065 0.37265 0.51717 0.0
C143 C 0.03078 0.36262 0.4999 0.0
C144 C 0.06154 0.34873 0.51577 0.0
C145 C 0.06051 0.34375 0.54795 0.0
C146 C 0.06339 0.36908 0.4159 0.0
C147 C 0.03276 0.35497 0.39991 0.0
C148 C 0.06231 0.37317 0.44834 0.0
C149 C 0.03058 0.36326 0.4653 0.0
C150 C -0.00047 0.3506 0.44904 0.0
C151 C 0.0006 0.34654 0.41675 0.0
H152 H 0.68721 0.08934 0.90575 0.0
H153 H 0.7288 0.97813 0.90767 0.0
H154 H 0.67754 0.08678 0.96224 0.0
H155 H 0.72001 0.97587 0.96366 0.0
H156 H 0.68516 0.97245 0.06337 0.0
H157 H 0.6768 0.97526 0.00676 0.0
H158 H 0.71924 0.08632 0.00637 0.0
H159 H 0.72672 0.08381 0.0625 0.0
C160 C 0.694 0.06433 0.91817 0.0
C161 C 0.70919 0.03415 0.90237 0.0
C162 C 0.68855 0.06285 0.95047 0.0
C163 C 0.69812 0.03114 0.96745 0.0
C164 C 0.71184 0.00052 0.95131 0.0
C165 C 0.71728 0.002 0.91919 0.0
C166 C 0.69217 -0.00244 0.05115 0.0
C167 C 0.70706 0.02769 0.06727 0.0
C168 C 0.68749 -0.00082 0.01879 0.0
C169 C 0.69756 0.03097 0.00205 0.0
C170 C 0.71078 0.0616 0.01851 0.0
C171 C 0.71545 0.05998 0.05072 0.0
H172 H 0.97787 0.68673 0.40375 0.0
H173 H 0.08931 0.72842 0.407 0.0
H174 H 0.97919 0.67786 0.46038 0.0
H175 H 0.09034 0.72041 0.46308 0.0
H176 H 0.09159 0.68607 0.56301 0.0
H177 H 0.08999 0.67769 0.50639 0.0
H178 H 0.97886 0.71999 0.5043 0.0
H179 H 0.98016 0.7275 0.56049 0.0
C180 C 0.00267 0.69369 0.41649 0.0
C181 C 0.03327 0.70868 0.40102 0.0
C182 C 0.00343 0.68872 0.44886 0.0
C183 C 0.03485 0.69856 0.46623 0.0
C184 C 0.0659 0.71206 0.45044 0.0
C185 C 0.06513 0.71704 0.41825 0.0
C186 C 0.06674 0.69312 0.55042 0.0
C187 C 0.03621 0.70787 0.56611 0.0
C188 C 0.06581 0.6884 0.51804 0.0
C189 C 0.03433 0.69834 0.50083 0.0
C190 C 0.00334 0.7116 0.51682 0.0
C191 C 0.00427 0.71629 0.54905 0.0
H192 H 0.44701 0.09832 0.19791 0.0
H193 H 0.43418 -0.01347 0.22988 0.0
H194 H 0.51234 0.09555 0.20869 0.0
H195 H 0.49951 -0.01572 0.24281 0.0
H196 H 0.61741 0.97355 0.20325 0.0
H197 H 0.552 0.97753 0.21325 0.0
H198 H 0.5646 0.09192 0.23899 0.0
H199 H 0.63012 0.08824 0.22685 0.0
C200 C 0.45801 0.07352 0.2083 0.0
C201 C 0.43569 0.0424 0.21248 0.0
C202 C 0.49563 0.07195 0.21477 0.0
C203 C 0.51168 0.0394 0.22617 0.0
C204 C 0.48847 0.00943 0.23314 0.0
C205 C 0.45094 0.01076 0.22598 0.0
C206 C 0.60635 -0.00063 0.21165 0.0
C207 C 0.62871 0.03077 0.21368 0.0
C208 C 0.56867 0.00166 0.21767 0.0
C209 C 0.55255 0.03528 0.22646 0.0
C210 C 0.57573 0.06584 0.23134 0.0
C211 C 0.61336 0.06371 0.22464 0.0
H212 H 0.09346 0.44451 0.69523 0.0
H213 H 0.98163 0.43336 0.72838 0.0
H214 H 0.09155 0.50992 0.70583 0.0
H215 H 0.98012 0.49892 0.74028 0.0
H216 H 0.97308 0.61645 0.69748 0.0
H217 H 0.97531 0.55093 0.70749 0.0
H218 H 0.08785 0.56155 0.73921 0.0
H219 H 0.08596 0.62724 0.7279 0.0
C220 C 0.0688 0.45587 0.70567 0.0
C221 C 0.03745 0.43391 0.71041 0.0
C222 C 0.06777 0.49348 0.71201 0.0
C223 C 0.03546 0.50995 0.72352 0.0
C224 C 0.00516 0.48732 0.73075 0.0
C225 C 0.00608 0.4497 0.72411 0.0
C226 C -0.00193 0.60498 0.70721 0.0
C227 C 0.02957 0.62688 0.71132 0.0
C228 C -0.0007 0.56731 0.71321 0.0
C229 C 0.03198 0.55071 0.72375 0.0
C230 C 0.0625 0.57326 0.73042 0.0
C231 C 0.06137 0.61096 0.72412 0.0
H232 H 0.63095 0.08257 0.73867 0.0
H233 H 0.62005 0.97064 0.77101 0.0
H234 H 0.56535 0.08387 0.72648 0.0
H235 H 0.55459 0.97233 0.76017 0.0
H236 H 0.44754 0.09027 0.76926 0.0
H237 H 0.51316 0.08831 0.75912 0.0
H238 H 0.50286 0.97608 0.72699 0.0
H239 H 0.43706 0.97768 0.73847 0.0
C240 C 0.61466 0.05805 0.74269 0.0
C241 C 0.63051 0.02671 0.75628 0.0
C242 C 0.57702 0.05885 0.73589 0.0
C243 C 0.55442 0.02846 0.74286 0.0
C244 C 0.571 -0.00381 0.75419 0.0
C245 C 0.60864 -0.00473 0.76067 0.0
C246 C 0.4591 0.06541 0.75941 0.0
C247 C 0.43726 0.0339 0.75525 0.0
C248 C 0.49683 0.06434 0.75333 0.0
C249 C 0.51356 0.03182 0.74264 0.0
C250 C 0.49106 0.0013 0.7359 0.0
C251 C 0.4533 0.00227 0.7423 0.0
H252 H 0.97357 0.44924 0.2673 0.0
H253 H 0.08673 0.43536 0.23849 0.0
H254 H 0.97791 0.5146 0.25694 0.0
H255 H 0.09077 0.50091 0.22692 0.0
H256 H -0.01213 0.63157 0.23561 0.0
H257 H -0.01489 0.5661 0.22358 0.0
H258 H 0.09504 0.55261 0.26052 0.0
H259 H 0.09821 0.61798 0.27134 0.0
C260 C -0.00092 0.46 0.25785 0.0
C261 C 0.03001 0.43729 0.25429 0.0
C262 C 0.00152 0.49757 0.25165 0.0
C263 C 0.0349 0.51323 0.24148 0.0
C264 C 0.0649 0.48989 0.23538 0.0
C265 C 0.06253 0.45229 0.24184 0.0
C266 C 0.01177 0.61471 0.24039 0.0
C267 C 0.04302 0.62977 0.2549 0.0
C268 C 0.01012 0.57716 0.23366 0.0
C269 C 0.03955 0.55387 0.24161 0.0
C270 C 0.07191 0.5696 0.25382 0.0
C271 C 0.07367 0.60717 0.26026 0.0
H272 H 0.09021 0.18147 0.29341 0.0
H273 H 0.14046 0.27929 0.25505 0.0
H274 H 0.13186 0.14342 0.26237 0.0
H275 H 0.18268 0.24098 0.22454 0.0
H276 H 0.27513 0.14937 0.20766 0.0
H277 H 0.23523 0.19056 0.23767 0.0
H278 H 0.13939 0.13588 0.20036 0.0
H279 H 0.17903 0.09522 0.16982 0.0
C280 C 0.11046 0.19485 0.2787 0.0
C281 C 0.11205 0.23338 0.27665 0.0
C282 C 0.13407 0.17306 0.2608 0.0
C283 C 0.16022 0.18936 0.24101 0.0
C284 C 0.16272 0.22783 0.23968 0.0
C285 C 0.13857 0.24967 0.25709 0.0
C286 C 0.24554 0.14643 0.20559 0.0
C287 C 0.23021 0.11907 0.18636 0.0
C288 C 0.22279 0.17001 0.22271 0.0
C289 C 0.18436 0.1661 0.22144 0.0
C290 C 0.169 0.13919 0.20188 0.0
C291 C 0.19168 0.11614 0.18426 0.0
H292 H 0.92162 0.27646 0.711 0.0
H293 H 0.97115 0.17872 0.67208 0.0
H294 H 0.87954 0.23799 0.74175 0.0
H295 H 0.9298 0.14059 0.7034 0.0
H296 H 0.88516 0.094 0.79802 0.0
H297 H 0.92375 0.13527 0.76702 0.0
H298 H 0.82665 0.18501 0.72756 0.0
H299 H 0.78774 0.14304 0.75798 0.0
C300 C 0.92339 0.24684 0.70889 0.0
C301 C 0.94966 0.2306 0.6891 0.0
C302 C 0.89932 0.22493 0.72642 0.0
C303 C 0.90174 0.18647 0.725 0.0
C304 C 0.92763 0.17024 0.70499 0.0
C305 C 0.95109 0.19207 0.68695 0.0
C306 C 0.87197 0.11396 0.78299 0.0
C307 C 0.8334 0.11524 0.7804 0.0
C308 C 0.89407 0.13737 0.76515 0.0
C309 C 0.87806 0.16306 0.74489 0.0
C310 C 0.83954 0.1654 0.74308 0.0
C311 C 0.81738 0.14138 0.76043 0.0
H312 H 0.9394 0.86661 0.31428 0.0
H313 H 0.9508 0.7926 0.23599 0.0
H314 H 0.89563 0.90338 0.28451 0.0
H315 H 0.90697 0.82939 0.20637 0.0
H316 H 0.86893 0.93477 0.1533 0.0
H317 H 0.9075 0.89245 0.18295 0.0
H318 H 0.83266 0.90004 0.26097 0.0
H319 H 0.79408 0.94241 0.23149 0.0
C320 C 0.93233 0.85796 0.29087 0.0
C321 C 0.94873 0.8267 0.27752 0.0
C322 C 0.90712 0.87895 0.27386 0.0
C323 C 0.89799 0.86933 0.24306 0.0
C324 C 0.91378 0.83768 0.22994 0.0
C325 C 0.93872 0.8165 0.24702 0.0
C326 C 0.86048 0.92716 0.17666 0.0
C327 C 0.82847 0.94213 0.19003 0.0
C328 C 0.88251 0.90278 0.19359 0.0
C329 C 0.87317 0.89308 0.22434 0.0
C330 C 0.84075 0.90735 0.23745 0.0
C331 C 0.81855 0.93145 0.22045 0.0
H332 H 0.09423 0.88237 0.67089 0.0
H333 H 0.14448 0.78541 0.71043 0.0
H334 H 0.1358 0.92111 0.7014 0.0
H335 H 0.18674 0.82448 0.74039 0.0
H336 H 0.27834 0.91908 0.7559 0.0
H337 H 0.23933 0.87686 0.72587 0.0
H338 H 0.14234 0.92795 0.76444 0.0
H339 H 0.18102 0.96949 0.79502 0.0
C340 C 0.11449 0.86931 0.68572 0.0
C341 C 0.11605 0.83082 0.68829 0.0
C342 C 0.13808 0.8915 0.70329 0.0
C343 C 0.16422 0.87568 0.72327 0.0
C344 C 0.16678 0.83724 0.72508 0.0
C345 C 0.1426 0.81498 0.70801 0.0
C346 C 0.2487 0.92101 0.75821 0.0
C347 C 0.23274 0.94759 0.77784 0.0
C348 C 0.22648 0.89685 0.74109 0.0
C349 C 0.18796 0.89945 0.74277 0.0
C350 C 0.17201 0.92563 0.76265 0.0
C351 C 0.19416 0.94921 0.78026 0.0
H352 H 0.80708 0.95563 0.7331 0.0
H353 H 0.82481 0.89472 0.81808 0.0
H354 H 0.84044 0.90908 0.70391 0.0
H355 H 0.85591 0.84654 0.78881 0.0
H356 H 0.8944 0.81943 0.6531 0.0
H357 H 0.8471 0.85128 0.68291 0.0
H358 H 0.91298 0.8389 0.76639 0.0
H359 H 0.95863 0.80476 0.73676 0.0
C360 C 0.81717 0.9316 0.74531 0.0
C361 C 0.81395 0.92888 0.77777 0.0
C362 C 0.83614 0.90467 0.7286 0.0
C363 C 0.85144 0.87403 0.74399 0.0
C364 C 0.84557 0.87018 0.77625 0.0
C365 C 0.8275 0.8976 0.79303 0.0
C366 C 0.89816 0.82291 0.678 0.0
C367 C 0.93013 0.81005 0.69271 0.0
C368 C 0.87127 0.84143 0.69506 0.0
C369 C 0.87637 0.84846 0.72703 0.0
C370 C 0.90763 0.83373 0.74196 0.0
C371 C 0.93404 0.8143 0.72499 0.0
H372 H 0.25789 0.96565 0.23757 0.0
H373 H 0.25156 0.89666 0.15594 0.0
H374 H 0.22439 0.91974 0.2675 0.0
H375 H 0.22054 0.84917 0.18619 0.0
H376 H 0.11501 0.80619 0.23286 0.0
H377 H 0.16185 0.84051 0.2047 0.0
H378 H 0.21756 0.86385 0.29177 0.0
H379 H 0.16889 0.83174 0.31986 0.0
C380 C 0.25039 0.93999 0.22641 0.0
C381 C 0.25669 0.93473 0.19451 0.0
C382 C 0.23133 0.91345 0.24354 0.0
C383 C 0.21907 0.88075 0.22921 0.0
C384 C 0.22838 0.87442 0.19781 0.0
C385 C 0.24646 0.90141 0.18052 0.0
C386 C 0.1376 0.81828 0.24581 0.0
C387 C 0.13819 0.81691 0.27843 0.0
C388 C 0.16473 0.83778 0.2297 0.0
C389 C 0.19352 0.85549 0.24592 0.0
C390 C 0.19534 0.85161 0.27852 0.0
C391 C 0.16764 0.83299 0.29464 0.0
H392 H 0.17052 0.24028 0.64957 0.0
H393 H 0.10969 0.25767 0.73475 0.0
H394 H 0.21887 0.20911 0.67861 0.0
H395 H 0.15638 0.22425 0.76371 0.0
H396 H 0.25963 0.1056 0.72988 0.0
H397 H 0.22608 0.15188 0.70058 0.0
H398 H 0.21424 0.21694 0.78458 0.0
H399 H 0.24548 0.16904 0.81403 0.0
C400 C 0.16773 0.23754 0.67462 0.0
C401 C 0.13639 0.25095 0.69 0.0
C402 C 0.19523 0.21943 0.69126 0.0
C403 C 0.19139 0.21338 0.72349 0.0
C404 C 0.16077 0.22867 0.73903 0.0
C405 C 0.13376 0.24768 0.72246 0.0
C406 C 0.25034 0.13014 0.74183 0.0
C407 C 0.25453 0.13365 0.77415 0.0
C408 C 0.23126 0.15691 0.72506 0.0
C409 C 0.21682 0.18814 0.74023 0.0
C410 C 0.22386 0.19283 0.77224 0.0
C411 C 0.24202 0.16558 0.7891 0.0
H412 H 0.95656 0.25772 0.22874 0.0
H413 H 0.88965 0.24781 0.31148 0.0
H414 H 0.91157 0.22225 0.19948 0.0
H415 H 0.84294 0.21469 0.28191 0.0
H416 H 0.82539 0.16256 0.14842 0.0
H417 H 0.85552 0.21268 0.17612 0.0
H418 H 0.83683 0.15575 0.26343 0.0
H419 H 0.80435 0.10732 0.23566 0.0
C420 C 0.93147 0.24902 0.24031 0.0
C421 C 0.92663 0.25491 0.2723 0.0
C422 C 0.90546 0.2288 0.22355 0.0
C423 C 0.87366 0.21491 0.23839 0.0
C424 C 0.86755 0.2238 0.2699 0.0
C425 C 0.89407 0.24309 0.2868 0.0
C426 C 0.82723 0.16131 0.17362 0.0
C427 C 0.81301 0.13109 0.19 0.0
C428 C 0.84471 0.18986 0.18951 0.0
C429 C 0.84934 0.18818 0.22204 0.0
C430 C 0.83346 0.15852 0.23847 0.0
C431 C 0.81504 0.13049 0.2226 0.0
loop_
_geom_bond_atom_site_label_1
_geom_bond_atom_site_label_2
_geom_bond_distance
_geom_bond_site_symmetry_2
_ccdc_geom_bond_type
C0 O1 1.306 . S
C0 O3 1.172 . S
O1 C0 1.306 . S
O1 Cd2 2.228 1_565 S
Cd2 O1 2.228 1_545 S
Cd2 O6 2.273 . S
Cd2 O10 2.277 . S
O3 C0 1.172 . S
O3 Cd4 2.191 1_565 S
Cd4 O3 2.191 1_545 S
Cd4 O6 2.411 . S
Cd4 O7 2.333 . S
Cd4 O8 2.352 . S
Cd4 O12 2.277 . S
Cd4 O13 2.356 . S
C5 O10 1.209 . S
C5 O12 1.226 . S
O6 Cd2 2.273 . S
O6 Cd4 2.411 . S
O6 C9 1.320 . S
O7 Cd4 2.333 . S
O7 C9 1.214 . S
O8 Cd4 2.352 . S
O8 C11 1.258 . S
C9 O6 1.320 . S
C9 O7 1.214 . S
O10 Cd2 2.277 . S
O10 C5 1.209 . S
C11 O8 1.258 . S
C11 O13 1.282 . S
O12 Cd4 2.277 . S
O12 C5 1.226 . S
O13 Cd4 2.356 . S
O13 C11 1.282 . S
C14 O15 1.306 . S
C14 O17 1.160 . S
O15 C14 1.306 . S
O15 Cd16 2.228 . S
Cd16 O15 2.228 . S
Cd16 O20 2.273 . S
Cd16 O24 2.277 . S
O17 C14 1.160 . S
O17 Cd18 2.203 . S
Cd18 O17 2.203 . S
Cd18 O20 2.411 . S
Cd18 O21 2.333 . S
Cd18 O22 2.352 . S
Cd18 O26 2.277 . S
Cd18 O27 2.356 . S
C19 O24 1.209 . S
C19 O26 1.226 . S
O20 Cd16 2.273 . S
O20 Cd18 2.411 . S
O20 C23 1.320 . S
O21 Cd18 2.333 . S
O21 C23 1.214 . S
O22 Cd18 2.352 . S
O22 C25 1.258 . S
C23 O20 1.320 . S
C23 O21 1.214 . S
O24 Cd16 2.277 . S
O24 C19 1.209 . S
C25 O22 1.258 . S
C25 O27 1.282 . S
O26 Cd18 2.277 . S
O26 C19 1.226 . S
O27 Cd18 2.356 . S
O27 C25 1.282 . S
C28 O29 1.306 . S
C28 O31 1.160 . S
O29 C28 1.306 . S
O29 Cd30 2.228 . S
Cd30 O29 2.228 . S
Cd30 O34 2.273 . S
Cd30 O38 2.277 . S
O31 C28 1.160 . S
O31 Cd32 2.203 . S
Cd32 O31 2.203 . S
Cd32 O34 2.411 . S
Cd32 O35 2.333 . S
Cd32 O36 2.352 . S
Cd32 O40 2.277 . S
Cd32 O41 2.356 . S
C33 O38 1.209 . S
C33 O40 1.226 . S
O34 Cd30 2.273 . S
O34 Cd32 2.411 . S
O34 C37 1.320 . S
O35 Cd32 2.333 . S
O35 C37 1.214 . S
O36 Cd32 2.352 . S
O36 C39 1.258 . S
C37 O34 1.320 . S
C37 O35 1.214 . S
O38 Cd30 2.277 . S
O38 C33 1.209 . S
C39 O36 1.258 . S
C39 O41 1.282 . S
O40 Cd32 2.277 . S
O40 C33 1.226 . S
O41 Cd32 2.356 . S
O41 C39 1.282 . S
C42 O43 1.306 . S
C42 O45 1.172 . S
O43 C42 1.306 . S
O43 Cd44 2.228 1_655 S
Cd44 O43 2.228 1_455 S
Cd44 O48 2.273 . S
Cd44 O52 2.277 . S
O45 C42 1.172 . S
O45 Cd46 2.191 1_655 S
Cd46 O45 2.191 1_455 S
Cd46 O48 2.411 . S
Cd46 O49 2.333 . S
Cd46 O50 2.352 . S
Cd46 O54 2.277 . S
Cd46 O55 2.356 . S
C47 O52 1.209 . S
C47 O54 1.226 . S
O48 Cd44 2.273 . S
O48 Cd46 2.411 . S
O48 C51 1.320 . S
O49 Cd46 2.333 . S
O49 C51 1.214 . S
O50 Cd46 2.352 . S
O50 C53 1.258 . S
C51 O48 1.320 . S
C51 O49 1.214 . S
O52 Cd44 2.277 . S
O52 C47 1.209 . S
C53 O50 1.258 . S
C53 O55 1.282 . S
O54 Cd46 2.277 . S
O54 C47 1.226 . S
O55 Cd46 2.356 . S
O55 C53 1.282 . S
C56 O57 1.306 . S
C56 O59 1.160 . S
O57 C56 1.306 . S
O57 Cd58 2.228 . S
Cd58 O57 2.228 . S
Cd58 O62 2.273 . S
Cd58 O66 2.277 . S
O59 C56 1.160 . S
O59 Cd60 2.203 . S
Cd60 O59 2.203 . S
Cd60 O62 2.411 . S
Cd60 O63 2.333 . S
Cd60 O64 2.352 . S
Cd60 O68 2.277 . S
Cd60 O69 2.356 . S
C61 O66 1.209 . S
C61 O68 1.226 . S
O62 Cd58 2.273 . S
O62 Cd60 2.411 . S
O62 C65 1.320 . S
O63 Cd60 2.333 . S
O63 C65 1.214 . S
O64 Cd60 2.352 . S
O64 C67 1.258 . S
C65 O62 1.320 . S
C65 O63 1.214 . S
O66 Cd58 2.277 . S
O66 C61 1.209 . S
C67 O64 1.258 . S
C67 O69 1.282 . S
O68 Cd60 2.277 . S
O68 C61 1.226 . S
O69 Cd60 2.356 . S
O69 C67 1.282 . S
C70 O71 1.306 . S
C70 O73 1.172 . S
O71 C70 1.306 . S
O71 Cd72 2.228 1_655 S
Cd72 O71 2.228 1_455 S
Cd72 O76 2.273 . S
Cd72 O80 2.277 . S
O73 C70 1.172 . S
O73 Cd74 2.191 1_655 S
Cd74 O73 2.191 1_455 S
Cd74 O76 2.411 . S
Cd74 O77 2.333 . S
Cd74 O78 2.352 . S
Cd74 O82 2.277 . S
Cd74 O83 2.356 . S
C75 O80 1.209 . S
C75 O82 1.226 . S
O76 Cd72 2.273 . S
O76 Cd74 2.411 . S
O76 C79 1.320 . S
O77 Cd74 2.333 . S
O77 C79 1.214 . S
O78 Cd74 2.352 . S
O78 C81 1.258 . S
C79 O76 1.320 . S
C79 O77 1.214 . S
O80 Cd72 2.277 . S
O80 C75 1.209 . S
C81 O78 1.258 . S
C81 O83 1.282 . S
O82 Cd74 2.277 . S
O82 C75 1.226 . S
O83 Cd74 2.356 . S
O83 C81 1.282 . S
C84 O85 1.306 . S
C84 O87 1.172 . S
O85 C84 1.306 . S
O85 Cd86 2.228 1_565 S
Cd86 O85 2.228 1_545 S
Cd86 O90 2.273 . S
Cd86 O94 2.277 . S
O87 C84 1.172 . S
O87 Cd88 2.191 1_565 S
Cd88 O87 2.191 1_545 S
Cd88 O90 2.411 . S
Cd88 O91 2.333 . S
Cd88 O92 2.352 . S
Cd88 O96 2.277 . S
Cd88 O97 2.356 . S
C89 O94 1.209 . S
C89 O96 1.226 . S
O90 Cd86 2.273 . S
O90 Cd88 2.411 . S
O90 C93 1.320 . S
O91 Cd88 2.333 . S
O91 C93 1.214 . S
O92 Cd88 2.352 . S
O92 C95 1.258 . S
C93 O90 1.320 . S
C93 O91 1.214 . S
O94 Cd86 2.277 . S
O94 C89 1.209 . S
C95 O92 1.258 . S
C95 O97 1.282 . S
O96 Cd88 2.277 . S
O96 C89 1.226 . S
O97 Cd88 2.356 . S
O97 C95 1.282 . S
C98 O99 1.306 . S
C98 O101 1.160 . S
O99 C98 1.306 . S
O99 Cd100 2.228 . S
Cd100 O99 2.228 . S
Cd100 O104 2.273 . S
Cd100 O108 2.277 . S
O101 C98 1.160 . S
O101 Cd102 2.203 . S
Cd102 O101 2.203 . S
Cd102 O104 2.411 . S
Cd102 O105 2.333 . S
Cd102 O106 2.352 . S
Cd102 O110 2.277 . S
Cd102 O111 2.356 . S
C103 O108 1.209 . S
C103 O110 1.226 . S
O104 Cd100 2.273 . S
O104 Cd102 2.411 . S
O104 C107 1.320 . S
O105 Cd102 2.333 . S
O105 C107 1.214 . S
O106 Cd102 2.352 . S
O106 C109 1.258 . S
C107 O104 1.320 . S
C107 O105 1.214 . S
O108 Cd100 2.277 . S
O108 C103 1.209 . S
C109 O106 1.258 . S
C109 O111 1.282 . S
O110 Cd102 2.277 . S
O110 C103 1.226 . S
O111 Cd102 2.356 . S
O111 C109 1.282 . S
H112 C120 0.950 1_565 S
H113 C125 0.950 . S
H114 C122 0.950 1_565 S
H115 C124 0.950 . S
H116 C126 0.950 . S
H117 C128 0.950 . S
H118 C130 0.950 1_565 S
H119 C131 0.950 1_565 S
C120 H112 0.950 1_545 S
C120 C121 1.386 . S
C120 C122 1.391 . S
C121 C120 1.386 . S
C121 C125 1.393 . S
C122 H114 0.950 1_545 S
C122 C120 1.391 . S
C122 C123 1.400 . S
C123 C122 1.400 . S
C123 C124 1.398 . S
C123 C129 1.491 1_554 S
C124 H115 0.950 . S
C124 C123 1.398 . S
C124 C125 1.391 . S
C125 H113 0.950 . S
C125 C121 1.393 . S
C125 C124 1.391 . S
C126 H116 0.950 . S
C126 C127 1.386 . S
C126 C128 1.391 . S
C127 C126 1.386 . S
C127 C131 1.393 . S
C128 H117 0.950 . S
C128 C126 1.391 . S
C128 C129 1.400 . S
C129 C123 1.491 1_556 S
C129 C128 1.400 . S
C129 C130 1.398 . S
C130 H118 0.950 1_545 S
C130 C129 1.398 . S
C130 C131 1.391 . S
C131 H119 0.950 1_545 S
C131 C127 1.393 . S
C131 C130 1.391 . S
H132 C140 0.950 . S
H133 C145 0.950 . S
H134 C142 0.950 . S
H135 C144 0.950 . S
H136 C146 0.950 . S
H137 C148 0.950 . S
H138 C150 0.950 . S
H139 C151 0.950 . S
C140 H132 0.950 . S
C140 C141 1.386 . S
C140 C142 1.391 . S
C141 C140 1.386 . S
C141 C145 1.393 . S
C142 H134 0.950 . S
C142 C140 1.391 . S
C142 C143 1.400 . S
C143 C142 1.400 . S
C143 C144 1.398 . S
C143 C149 1.491 . S
C144 H135 0.950 . S
C144 C143 1.398 . S
C144 C145 1.391 . S
C145 H133 0.950 . S
C145 C141 1.393 . S
C145 C144 1.391 . S
C146 H136 0.950 . S
C146 C147 1.386 . S
C146 C148 1.391 . S
C147 C146 1.386 . S
C147 C151 1.393 . S
C148 H137 0.950 . S
C148 C146 1.391 . S
C148 C149 1.400 . S
C149 C143 1.491 . S
C149 C148 1.400 . S
C149 C150 1.398 . S
C150 H138 0.950 . S
C150 C149 1.398 . S
C150 C151 1.391 . S
C151 H139 0.950 . S
C151 C147 1.393 . S
C151 C150 1.391 . S
H152 C160 0.950 . S
H153 C165 0.950 . S
H154 C162 0.950 . S
H155 C164 0.950 . S
H156 C166 0.950 . S
H157 C168 0.950 . S
H158 C170 0.950 . S
H159 C171 0.950 . S
C160 H152 0.950 . S
C160 C161 1.386 . S
C160 C162 1.391 . S
C161 C160 1.386 . S
C161 C165 1.393 . S
C162 H154 0.950 . S
C162 C160 1.391 . S
C162 C163 1.400 . S
C163 C162 1.400 . S
C163 C164 1.398 . S
C163 C169 1.491 1_556 S
C164 H155 0.950 . S
C164 C163 1.398 . S
C164 C165 1.391 . S
C165 H153 0.950 . S
C165 C161 1.393 . S
C165 C164 1.391 . S
C166 H156 0.950 . S
C166 C167 1.386 . S
C166 C168 1.391 . S
C167 C166 1.386 . S
C167 C171 1.393 . S
C168 H157 0.950 . S
C168 C166 1.391 . S
C168 C169 1.400 . S
C169 C163 1.491 1_554 S
C169 C168 1.400 . S
C169 C170 1.398 . S
C170 H158 0.950 . S
C170 C169 1.398 . S
C170 C171 1.391 . S
C171 H159 0.950 . S
C171 C167 1.393 . S
C171 C170 1.391 . S
H172 C180 0.950 1_655 S
H173 C185 0.950 . S
H174 C182 0.950 1_655 S
H175 C184 0.950 . S
H176 C186 0.950 . S
H177 C188 0.950 . S
H178 C190 0.950 1_655 S
H179 C191 0.950 1_655 S
C180 H172 0.950 1_455 S
C180 C181 1.386 . S
C180 C182 1.391 . S
C181 C180 1.386 . S
C181 C185 1.393 . S
C182 H174 0.950 1_455 S
C182 C180 1.391 . S
C182 C183 1.400 . S
C183 C182 1.400 . S
C183 C184 1.398 . S
C183 C189 1.491 . S
C184 H175 0.950 . S
C184 C183 1.398 . S
C184 C185 1.391 . S
C185 H173 0.950 . S
C185 C181 1.393 . S
C185 C184 1.391 . S
C186 H176 0.950 . S
C186 C187 1.386 . S
C186 C188 1.391 . S
C187 C186 1.386 . S
C187 C191 1.393 . S
C188 H177 0.950 . S
C188 C186 1.391 . S
C188 C189 1.400 . S
C189 C183 1.491 . S
C189 C188 1.400 . S
C189 C190 1.398 . S
C190 H178 0.950 1_455 S
C190 C189 1.398 . S
C190 C191 1.391 . S
C191 H179 0.950 1_455 S
C191 C187 1.393 . S
C191 C190 1.391 . S
H192 C200 0.950 . S
H193 C205 0.950 1_565 S
H194 C202 0.950 . S
H195 C204 0.935 1_565 S
H196 C206 0.950 . S
H197 C208 0.950 . S
H198 C210 0.950 . S
H199 C211 0.950 . S
C200 H192 0.950 . S
C200 C201 1.386 . S
C200 C202 1.391 . S
C201 C200 1.386 . S
C201 C205 1.393 . S
C202 H194 0.950 . S
C202 C200 1.391 . S
C202 C203 1.400 . S
C203 C202 1.400 . S
C203 C204 1.398 . S
C203 C209 1.491 . S
C204 H195 0.935 1_545 S
C204 C203 1.398 . S
C204 C205 1.391 . S
C205 H193 0.950 1_545 S
C205 C201 1.393 . S
C205 C204 1.391 . S
C206 H196 0.950 . S
C206 C207 1.386 . S
C206 C208 1.391 . S
C207 C206 1.386 . S
C207 C211 1.393 . S
C208 H197 0.950 . S
C208 C206 1.391 . S
C208 C209 1.400 . S
C209 C203 1.491 . S
C209 C208 1.400 . S
C209 C210 1.398 . S
C210 H198 0.950 . S
C210 C209 1.398 . S
C210 C211 1.391 . S
C211 H199 0.950 . S
C211 C207 1.393 . S
C211 C210 1.391 . S
H212 C220 0.950 . S
H213 C225 0.950 . S
H214 C222 0.950 . S
H215 C224 0.950 . S
H216 C226 0.950 1_655 S
H217 C228 0.950 1_655 S
H218 C230 0.950 . S
H219 C231 0.950 . S
C220 H212 0.950 . S
C220 C221 1.386 . S
C220 C222 1.391 . S
C221 C220 1.386 . S
C221 C225 1.393 . S
C222 H214 0.950 . S
C222 C220 1.391 . S
C222 C223 1.400 . S
C223 C222 1.400 . S
C223 C224 1.398 . S
C223 C229 1.491 . S
C224 H215 0.950 . S
C224 C223 1.398 . S
C224 C225 1.391 . S
C225 H213 0.950 . S
C225 C221 1.393 . S
C225 C224 1.391 . S
C226 H216 0.950 1_455 S
C226 C227 1.386 . S
C226 C228 1.391 . S
C227 C226 1.386 . S
C227 C231 1.393 . S
C228 H217 0.950 1_455 S
C228 C226 1.391 . S
C228 C229 1.400 . S
C229 C223 1.491 . S
C229 C228 1.400 . S
C229 C230 1.398 . S
C230 H218 0.950 . S
C230 C229 1.398 . S
C230 C231 1.391 . S
C231 H219 0.950 . S
C231 C227 1.393 . S
C231 C230 1.391 . S
H232 C240 0.950 . S
H233 C245 0.950 . S
H234 C242 0.950 . S
H235 C244 0.950 . S
H236 C246 0.950 . S
H237 C248 0.950 . S
H238 C250 0.950 . S
H239 C251 0.950 . S
C240 H232 0.950 . S
C240 C241 1.386 . S
C240 C242 1.391 . S
C241 C240 1.386 . S
C241 C245 1.393 . S
C242 H234 0.950 . S
C242 C240 1.391 . S
C242 C243 1.400 . S
C243 C242 1.400 . S
C243 C244 1.398 . S
C243 C249 1.491 . S
C244 H235 0.950 . S
C244 C243 1.398 . S
C244 C245 1.391 . S
C245 H233 0.950 . S
C245 C241 1.393 . S
C245 C244 1.391 . S
C246 H236 0.950 . S
C246 C247 1.386 . S
C246 C248 1.391 . S
C247 C246 1.386 . S
C247 C251 1.393 . S
C248 H237 0.950 . S
C248 C246 1.391 . S
C248 C249 1.400 . S
C249 C243 1.491 . S
C249 C248 1.400 . S
C249 C250 1.398 . S
C250 H238 0.950 . S
C250 C249 1.398 . S
C250 C251 1.391 . S
C251 H239 0.950 . S
C251 C247 1.393 . S
C251 C250 1.391 . S
H252 C260 0.950 . S
H253 C265 0.950 . S
H254 C262 0.950 . S
H255 C264 0.950 . S
H256 C266 0.950 . S
H257 C268 0.950 . S
H258 C270 0.950 . S
H259 C271 0.950 . S
C260 H252 0.950 . S
C260 C261 1.386 . S
C260 C262 1.391 . S
C261 C260 1.386 . S
C261 C265 1.393 . S
C262 H254 0.950 . S
C262 C260 1.391 . S
C262 C263 1.400 . S
C263 C262 1.400 . S
C263 C264 1.398 . S
C263 C269 1.491 . S
C264 H255 0.950 . S
C264 C263 1.398 . S
C264 C265 1.391 . S
C265 H253 0.950 . S
C265 C261 1.393 . S
C265 C264 1.391 . S
C266 H256 0.950 . S
C266 C267 1.386 . S
C266 C268 1.391 . S
C267 C266 1.386 . S
C267 C271 1.393 . S
C268 H257 0.950 . S
C268 C266 1.391 . S
C268 C269 1.400 . S
C269 C263 1.491 . S
C269 C268 1.400 . S
C269 C270 1.398 . S
C270 H258 0.950 . S
C270 C269 1.398 . S
C270 C271 1.391 . S
C271 H259 0.950 . S
C271 C267 1.393 . S
C271 C270 1.391 . S
H272 C280 0.950 . S
H273 C285 0.950 . S
H274 C282 0.950 . S
H275 C284 0.950 . S
H276 C286 0.950 . S
H277 C288 0.950 . S
H278 C290 0.950 . S
H279 C291 0.950 . S
C280 H272 0.950 . S
C280 C281 1.386 . S
C280 C282 1.391 . S
C281 C280 1.386 . S
C281 C285 1.393 . S
C282 H274 0.950 . S
C282 C280 1.391 . S
C282 C283 1.400 . S
C283 C282 1.400 . S
C283 C284 1.398 . S
C283 C289 1.491 . S
C284 H275 0.950 . S
C284 C283 1.398 . S
C284 C285 1.391 . S
C285 H273 0.950 . S
C285 C281 1.393 . S
C285 C284 1.391 . S
C286 H276 0.950 . S
C286 C287 1.386 . S
C286 C288 1.391 . S
C287 C286 1.386 . S
C287 C291 1.393 . S
C288 H277 0.950 . S
C288 C286 1.391 . S
C288 C289 1.400 . S
C289 C283 1.491 . S
C289 C288 1.400 . S
C289 C290 1.398 . S
C290 H278 0.950 . S
C290 C289 1.398 . S
C290 C291 1.391 . S
C291 H279 0.950 . S
C291 C287 1.393 . S
C291 C290 1.391 . S
H292 C300 0.950 . S
H293 C305 0.950 1_455 S
H294 C302 0.950 . S
H295 C304 0.950 . S
H296 C306 0.950 . S
H297 C308 0.950 . S
H298 C310 0.950 . S
H299 C311 0.950 . S
C300 H292 0.950 . S
C300 C301 1.386 . S
C300 C302 1.391 . S
C301 C300 1.386 . S
C301 C305 1.393 . S
C302 H294 0.950 . S
C302 C300 1.391 . S
C302 C303 1.400 . S
C303 C302 1.400 . S
C303 C304 1.398 . S
C303 C309 1.491 . S
C304 H295 0.950 . S
C304 C303 1.398 . S
C304 C305 1.391 . S
C305 H293 0.950 1_655 S
C305 C301 1.393 . S
C305 C304 1.391 . S
C306 H296 0.950 . S
C306 C307 1.386 . S
C306 C308 1.391 . S
C307 C306 1.386 . S
C307 C311 1.393 . S
C308 H297 0.950 . S
C308 C306 1.391 . S
C308 C309 1.400 . S
C309 C303 1.491 . S
C309 C308 1.400 . S
C309 C310 1.398 . S
C310 H298 0.950 . S
C310 C309 1.398 . S
C310 C311 1.391 . S
C311 H299 0.950 . S
C311 C307 1.393 . S
C311 C310 1.391 . S
H312 C320 0.950 1_455 S
H313 C325 0.950 . S
H314 C322 0.950 . S
H315 C324 0.950 . S
H316 C326 0.950 . S
H317 C328 0.950 . S
H318 C330 0.950 . S
H319 C331 0.950 1_545 S
C320 H312 0.950 1_655 S
C320 C321 1.386 . S
C320 C322 1.391 . S
C321 C320 1.386 . S
C321 C325 1.393 . S
C322 H314 0.950 . S
C322 C320 1.391 . S
C322 C323 1.400 . S
C323 C322 1.400 . S
C323 C324 1.398 . S
C323 C329 1.491 . S
C324 H315 0.950 . S
C324 C323 1.398 . S
C324 C325 1.391 . S
C325 H313 0.950 . S
C325 C321 1.393 . S
C325 C324 1.391 . S
C326 H316 0.950 . S
C326 C327 1.386 . S
C326 C328 1.391 . S
C327 C326 1.386 . S
C327 C331 1.393 . S
C328 H317 0.950 . S
C328 C326 1.391 . S
C328 C329 1.400 . S
C329 C323 1.491 . S
C329 C328 1.400 . S
C329 C330 1.398 . S
C330 H318 0.950 . S
C330 C329 1.398 . S
C330 C331 1.391 . S
C331 H319 0.950 1_565 S
C331 C327 1.393 . S
C331 C330 1.391 . S
H332 C340 0.950 . S
H333 C345 0.950 . S
H334 C342 0.950 . S
H335 C344 0.950 . S
H336 C346 0.950 . S
H337 C348 0.950 . S
H338 C350 0.950 . S
H339 C351 0.950 1_545 S
C340 H332 0.950 . S
C340 C341 1.386 . S
C340 C342 1.391 . S
C341 C340 1.386 . S
C341 C345 1.393 . S
C342 H334 0.950 . S
C342 C340 1.391 . S
C342 C343 1.400 . S
C343 C342 1.400 . S
C343 C344 1.398 . S
C343 C349 1.491 . S
C344 H335 0.950 . S
C344 C343 1.398 . S
C344 C345 1.391 . S
C345 H333 0.950 . S
C345 C341 1.393 . S
C345 C344 1.391 . S
C346 H336 0.950 . S
C346 C347 1.386 . S
C346 C348 1.391 . S
C347 C346 1.386 . S
C347 C351 1.393 . S
C348 H337 0.950 . S
C348 C346 1.391 . S
C348 C349 1.400 . S
C349 C343 1.491 . S
C349 C348 1.400 . S
C349 C350 1.398 . S
C350 H338 0.950 . S
C350 C349 1.398 . S
C350 C351 1.391 . S
C351 H339 0.950 1_565 S
C351 C347 1.393 . S
C351 C350 1.391 . S
H352 C360 0.950 . S
H353 C365 0.950 . S
H354 C362 0.950 . S
H355 C364 0.950 . S
H356 C366 0.950 . S
H357 C368 0.950 . S
H358 C370 0.950 . S
H359 C371 0.950 . S
C360 H352 0.950 . S
C360 C361 1.386 . S
C360 C362 1.391 . S
C361 C360 1.386 . S
C361 C365 1.393 . S
C362 H354 0.950 . S
C362 C360 1.391 . S
C362 C363 1.400 . S
C363 C362 1.400 . S
C363 C364 1.398 . S
C363 C369 1.491 . S
C364 H355 0.950 . S
C364 C363 1.398 . S
C364 C365 1.391 . S
C365 H353 0.950 . S
C365 C361 1.393 . S
C365 C364 1.391 . S
C366 H356 0.950 . S
C366 C367 1.386 . S
C366 C368 1.391 . S
C367 C366 1.386 . S
C367 C371 1.393 . S
C368 H357 0.950 . S
C368 C366 1.391 . S
C368 C369 1.400 . S
C369 C363 1.491 . S
C369 C368 1.400 . S
C369 C370 1.398 . S
C370 H358 0.950 . S
C370 C369 1.398 . S
C370 C371 1.391 . S
C371 H359 0.950 . S
C371 C367 1.393 . S
C371 C370 1.391 . S
H372 C380 0.950 . S
H373 C385 0.950 . S
H374 C382 0.950 . S
H375 C384 0.950 . S
H376 C386 0.950 . S
H377 C388 0.950 . S
H378 C390 0.950 . S
H379 C391 0.950 . S
C380 H372 0.950 . S
C380 C381 1.386 . S
C380 C382 1.391 . S
C381 C380 1.386 . S
C381 C385 1.393 . S
C382 H374 0.950 . S
C382 C380 1.391 . S
C382 C383 1.400 . S
C383 C382 1.400 . S
C383 C384 1.398 . S
C383 C389 1.491 . S
C384 H375 0.950 . S
C384 C383 1.398 . S
C384 C385 1.391 . S
C385 H373 0.950 . S
C385 C381 1.393 . S
C385 C384 1.391 . S
C386 H376 0.950 . S
C386 C387 1.386 . S
C386 C388 1.391 . S
C387 C386 1.386 . S
C387 C391 1.393 . S
C388 H377 0.950 . S
C388 C386 1.391 . S
C388 C389 1.400 . S
C389 C383 1.491 . S
C389 C388 1.400 . S
C389 C390 1.398 . S
C390 H378 0.950 . S
C390 C389 1.398 . S
C390 C391 1.391 . S
C391 H379 0.950 . S
C391 C387 1.393 . S
C391 C390 1.391 . S
H392 C400 0.950 . S
H393 C405 0.950 . S
H394 C402 0.950 . S
H395 C404 0.950 . S
H396 C406 0.950 . S
H397 C408 0.950 . S
H398 C410 0.950 . S
H399 C411 0.950 . S
C400 H392 0.950 . S
C400 C401 1.386 . S
C400 C402 1.391 . S
C401 C400 1.386 . S
C401 C405 1.393 . S
C402 H394 0.950 . S
C402 C400 1.391 . S
C402 C403 1.400 . S
C403 C402 1.400 . S
C403 C404 1.398 . S
C403 C409 1.491 . S
C404 H395 0.950 . S
C404 C403 1.398 . S
C404 C405 1.391 . S
C405 H393 0.950 . S
C405 C401 1.393 . S
C405 C404 1.391 . S
C406 H396 0.950 . S
C406 C407 1.386 . S
C406 C408 1.391 . S
C407 C406 1.386 . S
C407 C411 1.393 . S
C408 H397 0.950 . S
C408 C406 1.391 . S
C408 C409 1.400 . S
C409 C403 1.491 . S
C409 C408 1.400 . S
C409 C410 1.398 . S
C410 H398 0.950 . S
C410 C409 1.398 . S
C410 C411 1.391 . S
C411 H399 0.950 . S
C411 C407 1.393 . S
C411 C410 1.391 . S
H412 C420 0.950 . S
H413 C425 0.950 . S
H414 C422 0.950 . S
H415 C424 0.950 . S
H416 C426 0.950 . S
H417 C428 0.950 . S
H418 C430 0.950 . S
H419 C431 0.950 . S
C420 H412 0.950 . S
C420 C421 1.386 . S
C420 C422 1.391 . S
C421 C420 1.386 . S
C421 C425 1.393 . S
C422 H414 0.950 . S
C422 C420 1.391 . S
C422 C423 1.400 . S
C423 C422 1.400 . S
C423 C424 1.398 . S
C423 C429 1.491 . S
C424 H415 0.950 . S
C424 C423 1.398 . S
C424 C425 1.391 . S
C425 H413 0.950 . S
C425 C421 1.393 . S
C425 C424 1.391 . S
C426 H416 0.950 . S
C426 C427 1.386 . S
C426 C428 1.391 . S
C427 C426 1.386 . S
C427 C431 1.393 . S
C428 H417 0.950 . S
C428 C426 1.391 . S
C428 C429 1.400 . S
C429 C423 1.491 . S
C429 C428 1.400 . S
C429 C430 1.398 . S
C430 H418 0.950 . S
C430 C429 1.398 . S
C430 C431 1.391 . S
C431 H419 0.950 . S
C431 C427 1.393 . S
C431 C430 1.391 . S
C121 C9 1.581 . S
C127 C65 1.575 . S
C141 C23 1.574 . S
C147 C79 1.578 . S
C161 C93 1.576 . S
C167 C37 1.581 . S
C181 C107 1.575 . S
C187 C51 1.581 . S
C201 C11 1.271 . S
C207 C39 1.265 . S
C221 C25 1.247 . S
C227 C53 1.254 . S
C241 C95 1.272 . S
C247 C67 1.271 . S
C261 C81 1.247 . S
C267 C109 1.245 . S
C281 C75 1.533 . S
C287 C5 1.530 . S
C301 C19 1.533 1_655 S
C307 C89 1.536 . S
C321 C103 1.530 1_655 S
C327 C33 1.531 1_565 S
C341 C47 1.532 . S
C347 C61 1.530 1_565 S
C361 C84 1.082 . S
C367 C42 1.091 . S
C381 C0 1.091 . S
C387 C98 1.115 . S
C401 C14 1.116 . S
C407 C56 1.104 . S
C421 C70 1.088 . S
C427 C28 1.083 . S
