# Generated by pormake.
# Topology dft, (4)-cn, num edge types: 1
# Building blocks:
#     Node 0, Type 0, BuildingBlock: QUQFOY_clean_sbu_1, # of connection points: 4
#     Node 1, Type 0, BuildingBlock: QUQFOY_clean_sbu_1, # of connection points: 4
#     Node 2, Type 0, BuildingBlock: QUQFOY_clean_sbu_1, # of connection points: 4
#     Node 3, Type 0, BuildingBlock: QUQFOY_clean_sbu_1, # of connection points: 4
#     Node 4, Type 0, BuildingBlock: QUQFOY_clean_sbu_1, # of connection points: 4
#     Node 5, Type 0, BuildingBlock: QUQFOY_clean_sbu_1, # of connection points: 4
#     Node 6, Type 0, BuildingBlock: QUQFOY_clean_sbu_1, # of connection points: 4
#     Node 7, Type 0, BuildingBlock: QUQFOY_clean_sbu_1, # of connection points: 4
#     Edge 8, Type (0, 0), BuildingBlock: KIFKEQ_clean_linker_1, # of connection points: 2
#     Edge 9, Type (0, 0), BuildingBlock: KIFKEQ_clean_linker_1, # of connection points: 2
#     Edge 10, Type (0, 0), BuildingBlock: KIFKEQ_clean_linker_1, # of connection points: 2
#     Edge 11, Type (0, 0), BuildingBlock: KIFKEQ_clean_linker_1, # of connection points: 2
#     Edge 12, Type (0, 0), BuildingBlock: KIFKEQ_clean_linker_1, # of connection points: 2
#     Edge 13, Type (0, 0), BuildingBlock: KIFKEQ_clean_linker_1, # of connection points: 2
#     Edge 14, Type (0, 0), BuildingBlock: KIFKEQ_clean_linker_1, # of connection points: 2
#     Edge 15, Type (0, 0), BuildingBlock: KIFKEQ_clean_linker_1, # of connection points: 2
#     Edge 16, Type (0, 0), BuildingBlock: KIFKEQ_clean_linker_1, # of connection points: 2
#     Edge 17, Type (0, 0), BuildingBlock: KIFKEQ_clean_linker_1, # of connection points: 2
#     Edge 18, Type (0, 0), BuildingBlock: KIFKEQ_clean_linker_1, # of connection points: 2
#     Edge 19, Type (0, 0), BuildingBlock: KIFKEQ_clean_linker_1, # of connection points: 2
#     Edge 20, Type (0, 0), BuildingBlock: KIFKEQ_clean_linker_1, # of connection points: 2
#     Edge 21, Type (0, 0), BuildingBlock: KIFKEQ_clean_linker_1, # of connection points: 2
#     Edge 22, Type (0, 0), BuildingBlock: KIFKEQ_clean_linker_1, # of connection points: 2
#     Edge 23, Type (0, 0), BuildingBlock: KIFKEQ_clean_linker_1, # of connection points: 2
# Relax obj value: 0.211
# Max RMSD: 0.224
# Mean RMSD: 0.224
data_MOF--net-dft--node1-QUQFOY_clean_sbu_1--edge1-KIFKEQ_clean_linker_1
_symmetry_space_group_name_H-M    P1
_symmetry_Int_Tables_number       1
_symmetry_cell_setting            triclinic
loop_
_symmetry_equiv_pos_as_xyz
'x, y, z'
_cell_length_a     37.361081
_cell_length_b     37.362011
_cell_length_c     40.890884
_cell_angle_alpha  89.984662
_cell_angle_beta   90.048023
_cell_angle_gamma 90.026491
loop_
_atom_site_label
_atom_site_type_symbol
_atom_site_fract_x
_atom_site_fract_y
_atom_site_fract_z
_atom_type_partial_charge
O0 O 0.35298 0.07189 0.13414 0.0
Cd1 Cd 0.35056 0.07494 0.18445 0.0
Cd2 Cd 0.29606 0.02582 0.17703 0.0
O3 O 0.31873 0.02394 0.13116 0.0
O4 O 0.39789 0.09246 0.19992 0.0
O5 O 0.37804 0.0373 0.20871 0.0
C6 C 0.40344 0.06068 0.21122 0.0
C7 C 0.27244 0.97177 0.19654 0.0
C8 C 0.33949 0.04643 0.11762 0.0
C9 C 0.27809 0.09993 0.20304 0.0
O10 O 0.26714 0.0706 0.19084 0.0
O11 O 0.3114 0.10629 0.20531 0.0
O12 O 0.25787 0.98894 0.17275 0.0
O13 O 0.30113 0.98504 0.20935 0.0
O14 O 0.00706 0.35412 0.63301 0.0
Cd15 Cd 1.00073 0.35351 0.6832 0.0
Cd16 Cd 0.04987 0.29768 0.68023 0.0
O17 O 0.05207 0.31596 0.63294 0.0
O18 O 0.98134 0.40111 0.69593 0.0
O19 O 0.03606 0.38279 0.7087 0.0
C20 C 0.0121 0.40776 0.70896 0.0
C21 C 0.10387 0.27631 0.70157 0.0
C22 C 0.03152 0.33736 0.61782 0.0
C23 C 0.97487 0.28127 0.70416 0.0
O24 O 0.00502 0.26957 0.69453 0.0
O25 O 0.96824 0.31465 0.70373 0.0
O26 O 0.08763 0.26013 0.67813 0.0
O27 O 0.08964 0.30506 0.71324 0.0
O28 O 0.71579 1.00241 0.13236 0.0
Cd29 Cd 0.71537 0.99405 0.18212 0.0
Cd30 Cd 0.77163 0.04457 0.18286 0.0
O31 O 0.75759 0.04411 0.1341 0.0
O32 O 0.66745 0.97504 0.19419 0.0
O33 O 0.68682 0.02894 0.2086 0.0
C34 C 0.66147 0.00536 0.20828 0.0
C35 C 0.79421 0.09961 0.20116 0.0
C36 C 0.73535 0.02535 0.11801 0.0
C37 C 0.78592 0.96921 0.20836 0.0
O38 O 0.79728 1.00066 0.20263 0.0
O39 O 0.75369 0.96073 0.2021 0.0
O40 O 0.81146 0.07983 0.18089 0.0
O41 O 0.76355 0.08828 0.21139 0.0
O42 O 0.0746 0.72209 0.63414 0.0
Cd43 Cd 0.07744 0.7219 0.68454 0.0
Cd44 Cd 0.02678 0.77606 0.67948 0.0
O45 O 0.02629 0.75592 0.63258 0.0
O46 O 0.09595 0.67425 0.69822 0.0
O47 O 0.04038 0.69242 0.70759 0.0
C48 C 0.06433 0.66751 0.70931 0.0
C49 C 0.97181 0.79835 0.69801 0.0
C50 C 0.04908 0.73625 0.61819 0.0
C51 C 0.10027 0.79393 0.70733 0.0
O52 O 0.07062 0.80492 0.69582 0.0
O53 O 0.10766 0.76074 0.70732 0.0
O54 O 0.98983 0.81413 0.67544 0.0
O55 O 0.9848 0.76924 0.71021 0.0
O56 O 0.35536 0.00331 0.85738 0.0
Cd57 Cd 0.35351 1.00001 0.80706 0.0
Cd58 Cd 0.2995 0.04942 0.8136 0.0
O59 O 0.32221 0.052 0.85947 0.0
O60 O 0.40059 0.98095 0.79246 0.0
O61 O 0.38256 0.03653 0.78286 0.0
C62 C 0.40729 0.01241 0.78094 0.0
C63 C 0.27844 0.10337 0.79214 0.0
C64 C 0.34231 0.02928 0.87347 0.0
C65 C 0.28052 0.97571 0.78818 0.0
O66 O 0.26958 0.00494 0.80059 0.0
O67 O 0.31385 0.96941 0.78587 0.0
O68 O 0.26334 0.08839 0.81686 0.0
O69 O 0.30603 0.08797 0.77941 0.0
O70 O 0.06592 0.3518 0.35619 0.0
Cd71 Cd 0.07007 0.35088 0.30583 0.0
Cd72 Cd 0.02149 0.29414 0.31108 0.0
O73 O 0.02329 0.311 0.35883 0.0
O74 O 0.08883 0.39845 0.29226 0.0
O75 O 0.03366 0.37992 0.28143 0.0
C76 C 0.05757 0.40493 0.28021 0.0
C77 C 0.96606 0.27191 0.29356 0.0
C78 C 0.04362 0.3336 0.37273 0.0
C79 C 0.09498 0.27909 0.28254 0.0
O80 O 0.06513 0.26714 0.29266 0.0
O81 O 0.10197 0.31235 0.28416 0.0
O82 O 0.98535 0.25524 0.31468 0.0
O83 O 0.97806 0.30183 0.28219 0.0
O84 O 0.7215 0.06969 0.85719 0.0
Cd85 Cd 0.72149 0.07522 0.80688 0.0
Cd86 Cd 0.77816 0.02592 0.81037 0.0
O87 O 0.762 0.02671 0.85831 0.0
O88 O 0.67374 0.0944 0.79424 0.0
O89 O 0.69196 0.03952 0.78204 0.0
C90 C 0.66701 0.0635 0.78155 0.0
C91 C 0.80096 0.97095 0.7922 0.0
C92 C 0.73987 0.04685 0.87298 0.0
C93 C 0.79309 0.10025 0.78321 0.0
O94 O 0.80488 0.07002 0.79252 0.0
O95 O 0.75992 0.10749 0.78535 0.0
O96 O 0.81754 0.99024 0.81337 0.0
O97 O 0.77082 0.98269 0.78111 0.0
O98 O 1.00198 0.71838 0.35838 0.0
Cd99 Cd 0.99547 0.71841 0.30846 0.0
Cd100 Cd 0.04548 0.77536 0.31088 0.0
O101 O 0.04684 0.75683 0.35852 0.0
O102 O 0.97625 0.67067 0.296 0.0
O103 O 0.03069 0.68938 0.2827 0.0
C104 C 0.00683 0.66429 0.28257 0.0
C105 C 0.09948 0.80007 0.29226 0.0
C106 C 0.02644 0.73516 0.37357 0.0
C107 C 0.96977 0.78942 0.28508 0.0
O108 O 1.00041 0.80136 0.29318 0.0
O109 O 0.96238 0.75642 0.28825 0.0
O110 O 0.08024 0.81562 0.31408 0.0
O111 O 0.08828 0.76987 0.28083 0.0
H112 H 0.32489 0.98959 0.07804 0.0
H113 H 0.37052 0.09594 0.07706 0.0
H114 H 0.33207 0.98577 0.01902 0.0
H115 H 0.37782 0.09192 0.01773 0.0
H116 H 0.32793 0.08663 0.9125 0.0
H117 H 0.33363 0.09054 0.97167 0.0
H118 H 0.37769 0.98374 0.97427 0.0
H119 H 0.37185 0.97962 0.91481 0.0
C120 C 0.33679 0.01203 0.06527 0.0
C121 C 0.34682 0.04322 0.08221 0.0
C122 C 0.34118 0.00969 0.03147 0.0
C123 C 0.35545 0.03856 0.01379 0.0
C124 C 0.3665 0.06936 0.03077 0.0
C125 C 0.36242 0.0716 0.06471 0.0
C126 C 0.33918 0.06407 0.92559 0.0
C127 C 0.3491 0.03265 0.90898 0.0
C128 C 0.34272 0.06646 0.95948 0.0
C129 C 0.356 0.03742 0.97757 0.0
C130 C 0.36708 0.00643 0.96091 0.0
C131 C 0.36385 0.00413 0.9269 0.0
H132 H 0.00325 0.38906 0.57746 0.0
H133 H 0.06818 0.29325 0.57706 0.0
H134 H 0.00721 0.39164 0.51749 0.0
H135 H 0.07137 0.2957 0.51767 0.0
H136 H 0.01571 0.2861 0.41598 0.0
H137 H 0.01392 0.29063 0.47536 0.0
H138 H 0.0646 0.39425 0.47057 0.0
H139 H 0.06719 0.38962 0.41062 0.0
C140 C 0.01847 0.36877 0.56467 0.0
C141 C 0.03524 0.34086 0.58197 0.0
C142 C 0.02086 0.37039 0.53051 0.0
C143 C 0.03948 0.34379 0.51328 0.0
C144 C 0.05679 0.31642 0.53056 0.0
C145 C 0.05495 0.31511 0.56454 0.0
C146 C 0.02637 0.30997 0.42744 0.0
C147 C 0.04175 0.33745 0.40864 0.0
C148 C 0.02537 0.31247 0.4614 0.0
C149 C 0.03914 0.34274 0.47726 0.0
C150 C 0.05372 0.37074 0.45866 0.0
C151 C 0.05536 0.36796 0.42453 0.0
H152 H 0.6849 0.0699 0.91233 0.0
H153 H 0.7879 0.01724 0.9148 0.0
H154 H 0.68116 0.06508 0.97219 0.0
H155 H 0.78424 0.01309 0.97409 0.0
H156 H 0.78406 0.05804 0.0787 0.0
H157 H 0.7826 0.06393 0.01942 0.0
H158 H 0.68069 0.00966 0.01649 0.0
H159 H 0.68217 0.00314 0.07624 0.0
C160 C 0.70666 0.05738 0.9256 0.0
C161 C 0.73671 0.04401 0.9089 0.0
C162 C 0.70441 0.05448 0.9597 0.0
C163 C 0.73249 0.03885 0.97752 0.0
C164 C 0.76237 0.02545 0.96082 0.0
C165 C 0.76435 0.02775 0.92689 0.0
C166 C 0.7612 0.04747 0.06556 0.0
C167 C 0.73332 0.02991 0.08215 0.0
C168 C 0.76045 0.05082 0.03163 0.0
C169 C 0.73159 0.03717 0.01358 0.0
C170 C 0.70314 0.02051 0.03004 0.0
C171 C 0.70413 0.01661 0.06409 0.0
H172 H 0.08262 0.75672 0.41149 0.0
H173 H 0.98053 0.70244 0.41635 0.0
H174 H 0.08857 0.75196 0.4707 0.0
H175 H 0.98664 0.69776 0.47571 0.0
H176 H 0.99084 0.74917 0.57992 0.0
H177 H 0.9862 0.7441 0.52073 0.0
H178 H 0.09519 0.70605 0.5162 0.0
H179 H 0.09996 0.71104 0.57575 0.0
C180 C 0.06156 0.74355 0.42515 0.0
C181 C 0.03095 0.7302 0.40924 0.0
C182 C 0.06514 0.74058 0.45903 0.0
C183 C 0.03805 0.72454 0.47775 0.0
C184 C 0.00781 0.71047 0.46183 0.0
C185 C 0.00438 0.71307 0.42787 0.0
C186 C 0.01378 0.73946 0.56639 0.0
C187 C 0.04586 0.73072 0.58251 0.0
C188 C 0.01099 0.73631 0.5325 0.0
C189 C 0.04033 0.7247 0.51391 0.0
C190 C 0.07223 0.71527 0.52999 0.0
C191 C 0.0749 0.71799 0.56403 0.0
H192 H 0.435 0.99532 0.20769 0.0
H193 H 0.45321 0.1036 0.24024 0.0
H194 H 0.49791 0.9818 0.21528 0.0
H195 H 0.51592 0.08964 0.25044 0.0
H196 H 0.62955 0.07063 0.21099 0.0
H197 H 0.56664 0.08301 0.22016 0.0
H198 H 0.54903 0.97149 0.24415 0.0
H199 H 0.61169 0.95899 0.23235 0.0
C200 C 0.45232 0.01587 0.21766 0.0
C201 C 0.43938 0.05059 0.22301 0.0
C202 C 0.48859 0.00813 0.22223 0.0
C203 C 0.51263 0.03475 0.23304 0.0
C204 C 0.49874 0.0687 0.24105 0.0
C205 C 0.46266 0.07667 0.23559 0.0
C206 C 0.61229 0.04894 0.21881 0.0
C207 C 0.62533 0.01382 0.22058 0.0
C208 C 0.57605 0.05601 0.2243 0.0
C209 C 0.55214 0.02819 0.23251 0.0
C210 C 0.56611 0.99348 0.23685 0.0
C211 C 0.60216 0.9863 0.23045 0.0
H212 H 0.96597 0.45755 0.73335 0.0
H213 H 0.07709 0.44052 0.70949 0.0
H214 H 0.97811 0.5206 0.74367 0.0
H215 H 0.08904 0.50377 0.71723 0.0
H216 H 0.10881 0.61796 0.73659 0.0
H217 H 0.09603 0.55501 0.74683 0.0
H218 H 0.98709 0.57141 0.71387 0.0
H219 H 0.99951 0.63458 0.70619 0.0
C220 C 0.9931 0.46734 0.7306 0.0
C221 C 0.02056 0.44425 0.72048 0.0
C222 C 1.00006 0.50362 0.73613 0.0
C223 C 0.03447 0.5179 0.73068 0.0
C224 C 0.06228 0.49413 0.7222 0.0
C225 C 0.05545 0.45768 0.71755 0.0
C226 C 0.08194 0.60809 0.73234 0.0
C227 C 0.05519 0.63104 0.72045 0.0
C228 C 0.07462 0.57187 0.73785 0.0
C229 C 0.04065 0.5575 0.73061 0.0
C230 C 0.01347 0.58113 0.72025 0.0
C231 C 0.02057 0.61753 0.71562 0.0
H232 H 0.61762 0.10947 0.7562 0.0
H233 H 0.63391 0.99868 0.78182 0.0
H234 H 0.5546 0.09746 0.74554 0.0
H235 H 0.57065 0.9869 0.77373 0.0
H236 H 0.45655 0.96735 0.75406 0.0
H237 H 0.51957 0.97971 0.74381 0.0
H238 H 0.50356 0.08923 0.77513 0.0
H239 H 0.44035 0.07721 0.78285 0.0
C240 C 0.60767 0.08244 0.75929 0.0
C241 C 0.63053 0.05504 0.77 0.0
C242 C 0.57141 0.07555 0.75354 0.0
C243 C 0.55691 0.04131 0.75936 0.0
C244 C 0.58047 0.01353 0.76846 0.0
C245 C 0.61691 0.02026 0.77333 0.0
C246 C 0.46651 0.99427 0.7579 0.0
C247 C 0.44366 0.02128 0.7694 0.0
C248 C 0.50277 1.00133 0.7524 0.0
C249 C 0.51729 0.03534 0.75924 0.0
C250 C 0.49374 0.0628 0.76908 0.0
C251 C 0.45731 0.05593 0.77372 0.0
H252 H 0.10252 0.45425 0.25328 0.0
H253 H 0.99279 0.43786 0.28235 0.0
H254 H 0.09014 0.5173 0.24318 0.0
H255 H 0.98076 0.50111 0.27487 0.0
H256 H 0.96058 0.61528 0.25706 0.0
H257 H 0.97242 0.5524 0.24574 0.0
H258 H 0.08326 0.56813 0.27328 0.0
H259 H 0.07163 0.63128 0.28197 0.0
C260 C 0.07562 0.46419 0.25722 0.0
C261 C 0.04865 0.4413 0.26875 0.0
C262 C 0.06855 0.50046 0.25181 0.0
C263 C 0.03459 0.51493 0.25882 0.0
C264 C 0.00715 0.49133 0.26868 0.0
C265 C 0.01402 0.45488 0.27319 0.0
C266 C 0.98763 0.60529 0.25985 0.0
C267 C 0.01515 0.62801 0.27055 0.0
C268 C 0.99442 0.56911 0.25373 0.0
C269 C 0.02869 0.55454 0.2592 0.0
C270 C 0.05659 0.578 0.26827 0.0
C271 C 0.04996 0.61437 0.27348 0.0
H272 H 0.09081 0.20621 0.28123 0.0
H273 H 0.16048 0.29412 0.25525 0.0
H274 H 0.13542 0.16393 0.26217 0.0
H275 H 0.20494 0.25155 0.23519 0.0
H276 H 0.20553 0.0982 0.19533 0.0
H277 H 0.16192 0.14236 0.21297 0.0
H278 H 0.24684 0.20673 0.25419 0.0
H279 H 0.29076 0.16289 0.23562 0.0
C280 C 0.11553 0.21658 0.27116 0.0
C281 C 0.12199 0.25363 0.26974 0.0
C282 C 0.1411 0.19226 0.26004 0.0
C283 C 0.17376 0.20428 0.24699 0.0
C284 C 0.18024 0.24135 0.24545 0.0
C285 C 0.15465 0.26577 0.25674 0.0
C286 C 0.21498 0.12175 0.20816 0.0
C287 C 0.25167 0.1269 0.21416 0.0
C288 C 0.1899 0.14704 0.21842 0.0
C289 C 0.2008 0.17805 0.23518 0.0
C290 C 0.23754 0.18336 0.24101 0.0
C291 C 0.2627 0.1581 0.23057 0.0
H292 H 0.91076 0.29547 0.73438 0.0
H293 H 0.9763 0.2086 0.69867 0.0
H294 H 0.86606 0.25232 0.75308 0.0
H295 H 0.93137 0.16584 0.71624 0.0
H296 H 0.8659 0.09657 0.78389 0.0
H297 H 0.90855 0.14095 0.7652 0.0
H298 H 0.82157 0.20972 0.73506 0.0
H299 H 0.77854 0.16546 0.75493 0.0
C300 C 0.91554 0.26722 0.73035 0.0
C301 C 0.94726 0.2555 0.71528 0.0
C302 C 0.88981 0.24249 0.74087 0.0
C303 C 0.89516 0.20554 0.73636 0.0
C304 C 0.92664 0.19399 0.72078 0.0
C305 C 0.9524 0.2186 0.71054 0.0
C306 C 0.85573 0.12107 0.77321 0.0
C307 C 0.81873 0.12735 0.77081 0.0
C308 C 0.88028 0.14653 0.7623 0.0
C309 C 0.86858 0.17888 0.74837 0.0
C310 C 0.83154 0.18526 0.74597 0.0
C311 C 0.80686 0.15979 0.75715 0.0
H312 H 0.89718 0.77994 0.2836 0.0
H313 H 0.98018 0.85575 0.25897 0.0
H314 H 0.85179 0.8229 0.26654 0.0
H315 H 0.93513 0.89801 0.24034 0.0
H316 H 0.8484 0.98106 0.24094 0.0
H317 H 0.89159 0.93711 0.25987 0.0
H318 H 0.8247 0.85207 0.22213 0.0
H319 H 0.78059 0.89624 0.2047 0.0
C320 C 0.90573 0.80562 0.2741 0.0
C321 C 0.94225 0.81454 0.27281 0.0
C322 C 0.8797 0.83025 0.26416 0.0
C323 C 0.88962 0.86418 0.25223 0.0
C324 C 0.92629 0.87259 0.25017 0.0
C325 C 0.95223 0.84822 0.2606 0.0
C326 C 0.84282 0.95295 0.23688 0.0
C327 C 0.81112 0.94212 0.22127 0.0
C328 C 0.86777 0.92768 0.24748 0.0
C329 C 0.86202 0.89089 0.24221 0.0
C330 C 0.82996 0.88006 0.227 0.0
C331 C 0.80467 0.90539 0.21687 0.0
H332 H 0.09524 0.8669 0.70675 0.0
H333 H 0.16494 0.78058 0.73671 0.0
H334 H 0.13889 0.91026 0.72616 0.0
H335 H 0.20829 0.8241 0.75697 0.0
H336 H 0.29372 0.91238 0.75661 0.0
H337 H 0.25025 0.8684 0.73753 0.0
H338 H 0.16433 0.93357 0.77561 0.0
H339 H 0.20763 0.97794 0.79387 0.0
C340 C 0.11976 0.85712 0.71772 0.0
C341 C 0.12655 0.8202 0.72013 0.0
C342 C 0.14474 0.88205 0.72903 0.0
C343 C 0.17712 0.87072 0.74319 0.0
C344 C 0.18385 0.83378 0.74579 0.0
C345 C 0.15888 0.80881 0.73436 0.0
C346 C 0.26555 0.91735 0.76088 0.0
C347 C 0.25419 0.94878 0.77668 0.0
C348 C 0.24062 0.892 0.75013 0.0
C349 C 0.20375 0.89741 0.75501 0.0
C350 C 0.19246 0.92876 0.77098 0.0
C351 C 0.21734 0.95416 0.78161 0.0
H352 H 0.85404 0.93281 0.82118 0.0
H353 H 0.78557 0.93386 0.73602 0.0
H354 H 0.88794 0.88336 0.79818 0.0
H355 H 0.81972 0.88394 0.71286 0.0
H356 H 0.93135 0.84915 0.66817 0.0
H357 H 0.88243 0.88348 0.69162 0.0
H358 H 0.88805 0.81971 0.77959 0.0
H359 H 0.93741 0.78515 0.75599 0.0
C360 C 0.84582 0.92201 0.79776 0.0
C361 C 0.81745 0.9375 0.78019 0.0
C362 C 0.86507 0.89341 0.78472 0.0
C363 C 0.85661 0.87984 0.75365 0.0
C364 C 0.82698 0.89405 0.73679 0.0
C365 C 0.80738 0.9225 0.75006 0.0
C366 C 0.92174 0.84197 0.69229 0.0
C367 C 0.93852 0.81478 0.71044 0.0
C368 C 0.89345 0.86146 0.70561 0.0
C369 C 0.8815 0.85443 0.73752 0.0
C370 C 0.89691 0.82587 0.75501 0.0
C371 C 0.92505 0.80604 0.74149 0.0
H372 H 0.22158 0.9311 0.16688 0.0
H373 H 0.28382 0.93898 0.25566 0.0
H374 H 0.18648 0.88291 0.19077 0.0
H375 H 0.24852 0.89037 0.27968 0.0
H376 H 0.1359 0.85488 0.32056 0.0
H377 H 0.18465 0.88975 0.2974 0.0
H378 H 0.18608 0.82058 0.2128 0.0
H379 H 0.13688 0.78548 0.23609 0.0
C380 C 0.22818 0.92209 0.19133 0.0
C381 C 0.25518 0.93911 0.20955 0.0
C382 C 0.20824 0.89423 0.20492 0.0
C383 C 0.21461 0.88294 0.23716 0.0
C384 C 0.24284 0.89872 0.25484 0.0
C385 C 0.26312 0.92643 0.24107 0.0
C386 C 0.14695 0.84671 0.29725 0.0
C387 C 0.13228 0.81768 0.27996 0.0
C388 C 0.17514 0.86653 0.28411 0.0
C389 C 0.18913 0.858 0.25322 0.0
C390 C 0.17563 0.82791 0.23657 0.0
C391 C 0.14758 0.80777 0.24993 0.0
H392 H 0.16205 0.25304 0.6684 0.0
H393 H 0.11854 0.26337 0.76545 0.0
H394 H 0.21236 0.21898 0.6899 0.0
H395 H 0.16653 0.22641 0.78701 0.0
H396 H 0.25705 0.16305 0.82429 0.0
H397 H 0.22262 0.21289 0.80236 0.0
H398 H 0.22577 0.16338 0.70655 0.0
H399 H 0.26309 0.11585 0.72836 0.0
C400 C 0.16355 0.24807 0.69448 0.0
C401 C 0.13667 0.26072 0.71537 0.0
C402 C 0.1921 0.22807 0.70686 0.0
C403 C 0.19359 0.21889 0.74028 0.0
C404 C 0.16714 0.23307 0.76128 0.0
C405 C 0.13931 0.2542 0.74898 0.0
C406 C 0.25106 0.16362 0.79836 0.0
C407 C 0.26262 0.13586 0.77792 0.0
C408 C 0.23085 0.19192 0.78576 0.0
C409 C 0.22039 0.19226 0.75262 0.0
C410 C 0.23346 0.16489 0.73201 0.0
C411 C 0.2548 0.13732 0.74447 0.0
H412 H 0.92684 0.22029 0.32354 0.0
H413 H 0.92959 0.28635 0.23687 0.0
H414 H 0.87724 0.18623 0.30076 0.0
H415 H 0.87964 0.25197 0.21391 0.0
H416 H 0.84637 0.13841 0.17172 0.0
H417 H 0.88022 0.18808 0.19457 0.0
H418 H 0.81345 0.18628 0.28072 0.0
H419 H 0.77922 0.13626 0.25762 0.0
C420 C 0.91635 0.22797 0.29985 0.0
C421 C 0.93238 0.25566 0.28177 0.0
C422 C 0.88769 0.20864 0.28693 0.0
C423 C 0.87466 0.21632 0.25549 0.0
C424 C 0.88933 0.24537 0.23815 0.0
C425 C 0.9178 0.26507 0.2513 0.0
C426 C 0.83843 0.14903 0.19527 0.0
C427 C 0.81046 0.1332 0.21309 0.0
C428 C 0.85764 0.17773 0.20823 0.0
C429 C 0.84958 0.19099 0.23948 0.0
C430 C 0.82033 0.17644 0.25662 0.0
C431 C 0.80071 0.14793 0.24339 0.0
loop_
_geom_bond_atom_site_label_1
_geom_bond_atom_site_label_2
_geom_bond_distance
_geom_bond_site_symmetry_2
_ccdc_geom_bond_type
O0 Cd1 2.223 . S
O0 C8 1.315 . S
Cd1 O0 2.223 . S
Cd1 O4 2.297 . S
Cd1 O5 2.439 . S
Cd1 O11 2.240 . S
Cd2 O3 2.240 1_565 S
Cd2 O10 2.223 1_565 S
Cd2 O12 2.297 . S
Cd2 O13 2.439 . S
O3 Cd2 2.240 1_545 S
O3 C8 1.279 . S
O4 Cd1 2.297 . S
O4 C6 1.247 . S
O5 Cd1 2.439 . S
O5 C6 1.208 . S
C6 O4 1.247 . S
C6 O5 1.208 . S
C7 O12 1.247 . S
C7 O13 1.208 . S
C8 O0 1.315 . S
C8 O3 1.279 . S
C9 O10 1.315 . S
C9 O11 1.279 . S
O10 Cd2 2.223 1_545 S
O10 C9 1.315 . S
O11 Cd1 2.240 . S
O11 C9 1.279 . S
O12 Cd2 2.297 . S
O12 C7 1.247 . S
O13 Cd2 2.439 . S
O13 C7 1.208 . S
O14 Cd15 2.223 1_655 S
O14 C22 1.315 1_655 S
Cd15 O14 2.223 1_455 S
Cd15 O18 2.297 . S
Cd15 O19 2.439 . S
Cd15 O25 2.240 . S
Cd16 O17 2.240 . S
Cd16 O24 2.223 . S
Cd16 O26 2.297 . S
Cd16 O27 2.439 . S
O17 Cd16 2.240 . S
O17 C22 1.279 . S
O18 Cd15 2.297 . S
O18 C20 1.247 . S
O19 Cd15 2.439 . S
O19 C20 1.208 . S
C20 O18 1.247 . S
C20 O19 1.208 . S
C21 O26 1.247 . S
C21 O27 1.208 . S
C22 O14 1.315 1_455 S
C22 O17 1.279 . S
C23 O24 1.315 1_655 S
C23 O25 1.279 1_655 S
O24 Cd16 2.223 . S
O24 C23 1.315 1_455 S
O25 Cd15 2.240 . S
O25 C23 1.279 1_455 S
O26 Cd16 2.297 . S
O26 C21 1.247 . S
O27 Cd16 2.439 . S
O27 C21 1.208 . S
O28 Cd29 2.223 1_565 S
O28 C36 1.315 1_565 S
Cd29 O28 2.223 1_545 S
Cd29 O32 2.297 . S
Cd29 O33 2.439 . S
Cd29 O39 2.240 . S
Cd30 O31 2.240 . S
Cd30 O38 2.223 . S
Cd30 O40 2.297 . S
Cd30 O41 2.439 . S
O31 Cd30 2.240 . S
O31 C36 1.279 . S
O32 Cd29 2.297 . S
O32 C34 1.247 . S
O33 Cd29 2.439 . S
O33 C34 1.208 . S
C34 O32 1.247 . S
C34 O33 1.208 . S
C35 O40 1.247 . S
C35 O41 1.208 . S
C36 O28 1.315 1_545 S
C36 O31 1.279 . S
C37 O38 1.315 1_565 S
C37 O39 1.279 1_565 S
O38 Cd30 2.223 . S
O38 C37 1.315 1_545 S
O39 Cd29 2.240 . S
O39 C37 1.279 1_545 S
O40 Cd30 2.297 . S
O40 C35 1.247 . S
O41 Cd30 2.439 . S
O41 C35 1.208 . S
O42 Cd43 2.223 . S
O42 C50 1.315 . S
Cd43 O42 2.223 . S
Cd43 O46 2.297 . S
Cd43 O47 2.439 . S
Cd43 O53 2.240 . S
Cd44 O45 2.240 1_655 S
Cd44 O52 2.223 1_655 S
Cd44 O54 2.297 . S
Cd44 O55 2.439 . S
O45 Cd44 2.240 1_455 S
O45 C50 1.279 . S
O46 Cd43 2.297 . S
O46 C48 1.247 . S
O47 Cd43 2.439 . S
O47 C48 1.208 . S
C48 O46 1.247 . S
C48 O47 1.208 . S
C49 O54 1.247 . S
C49 O55 1.208 . S
C50 O42 1.315 . S
C50 O45 1.279 . S
C51 O52 1.315 . S
C51 O53 1.279 . S
O52 Cd44 2.223 1_455 S
O52 C51 1.315 . S
O53 Cd43 2.240 . S
O53 C51 1.279 . S
O54 Cd44 2.297 . S
O54 C49 1.247 . S
O55 Cd44 2.439 . S
O55 C49 1.208 . S
O56 Cd57 2.223 1_565 S
O56 C64 1.315 1_565 S
Cd57 O56 2.223 1_545 S
Cd57 O60 2.297 . S
Cd57 O61 2.439 . S
Cd57 O67 2.240 . S
Cd58 O59 2.240 . S
Cd58 O66 2.223 . S
Cd58 O68 2.297 . S
Cd58 O69 2.439 . S
O59 Cd58 2.240 . S
O59 C64 1.279 . S
O60 Cd57 2.297 . S
O60 C62 1.247 . S
O61 Cd57 2.439 . S
O61 C62 1.208 . S
C62 O60 1.247 . S
C62 O61 1.208 . S
C63 O68 1.247 . S
C63 O69 1.208 . S
C64 O56 1.315 1_545 S
C64 O59 1.279 . S
C65 O66 1.315 1_565 S
C65 O67 1.279 1_565 S
O66 Cd58 2.223 . S
O66 C65 1.315 1_545 S
O67 Cd57 2.240 . S
O67 C65 1.279 1_545 S
O68 Cd58 2.297 . S
O68 C63 1.247 . S
O69 Cd58 2.439 . S
O69 C63 1.208 . S
O70 Cd71 2.223 . S
O70 C78 1.315 . S
Cd71 O70 2.223 . S
Cd71 O74 2.297 . S
Cd71 O75 2.439 . S
Cd71 O81 2.240 . S
Cd72 O73 2.240 1_655 S
Cd72 O80 2.223 1_655 S
Cd72 O82 2.297 . S
Cd72 O83 2.439 . S
O73 Cd72 2.240 1_455 S
O73 C78 1.279 . S
O74 Cd71 2.297 . S
O74 C76 1.247 . S
O75 Cd71 2.439 . S
O75 C76 1.208 . S
C76 O74 1.247 . S
C76 O75 1.208 . S
C77 O82 1.247 . S
C77 O83 1.208 . S
C78 O70 1.315 . S
C78 O73 1.279 . S
C79 O80 1.315 . S
C79 O81 1.279 . S
O80 Cd72 2.223 1_455 S
O80 C79 1.315 . S
O81 Cd71 2.240 . S
O81 C79 1.279 . S
O82 Cd72 2.297 . S
O82 C77 1.247 . S
O83 Cd72 2.439 . S
O83 C77 1.208 . S
O84 Cd85 2.223 . S
O84 C92 1.315 . S
Cd85 O84 2.223 . S
Cd85 O88 2.297 . S
Cd85 O89 2.439 . S
Cd85 O95 2.240 . S
Cd86 O87 2.240 1_565 S
Cd86 O94 2.223 1_565 S
Cd86 O96 2.297 . S
Cd86 O97 2.439 . S
O87 Cd86 2.240 1_545 S
O87 C92 1.279 . S
O88 Cd85 2.297 . S
O88 C90 1.247 . S
O89 Cd85 2.439 . S
O89 C90 1.208 . S
C90 O88 1.247 . S
C90 O89 1.208 . S
C91 O96 1.247 . S
C91 O97 1.208 . S
C92 O84 1.315 . S
C92 O87 1.279 . S
C93 O94 1.315 . S
C93 O95 1.279 . S
O94 Cd86 2.223 1_545 S
O94 C93 1.315 . S
O95 Cd85 2.240 . S
O95 C93 1.279 . S
O96 Cd86 2.297 . S
O96 C91 1.247 . S
O97 Cd86 2.439 . S
O97 C91 1.208 . S
O98 Cd99 2.223 1_655 S
O98 C106 1.315 1_655 S
Cd99 O98 2.223 1_455 S
Cd99 O102 2.297 . S
Cd99 O103 2.439 . S
Cd99 O109 2.240 . S
Cd100 O101 2.240 . S
Cd100 O108 2.223 . S
Cd100 O110 2.297 . S
Cd100 O111 2.439 . S
O101 Cd100 2.240 . S
O101 C106 1.279 . S
O102 Cd99 2.297 . S
O102 C104 1.247 . S
O103 Cd99 2.439 . S
O103 C104 1.208 . S
C104 O102 1.247 . S
C104 O103 1.208 . S
C105 O110 1.247 . S
C105 O111 1.208 . S
C106 O98 1.315 1_455 S
C106 O101 1.279 . S
C107 O108 1.315 1_655 S
C107 O109 1.279 1_655 S
O108 Cd100 2.223 . S
O108 C107 1.315 1_455 S
O109 Cd99 2.240 . S
O109 C107 1.279 1_455 S
O110 Cd100 2.297 . S
O110 C105 1.247 . S
O111 Cd100 2.439 . S
O111 C105 1.208 . S
H112 C120 0.950 . S
H113 C125 0.950 . S
H114 C122 0.950 1_565 S
H115 C124 0.950 . S
H116 C126 0.950 . S
H117 C128 0.950 . S
H118 C130 0.950 1_565 S
H119 C131 0.959 . S
C120 H112 0.950 . S
C120 C121 1.386 . S
C120 C122 1.391 . S
C121 C120 1.386 . S
C121 C125 1.393 . S
C122 H114 0.950 1_545 S
C122 C120 1.391 . S
C122 C123 1.400 . S
C123 C122 1.400 . S
C123 C124 1.398 . S
C123 C129 1.491 1_554 S
C124 H115 0.950 . S
C124 C123 1.398 . S
C124 C125 1.391 . S
C125 H113 0.950 . S
C125 C121 1.393 . S
C125 C124 1.391 . S
C126 H116 0.950 . S
C126 C127 1.386 . S
C126 C128 1.391 . S
C127 C126 1.386 . S
C127 C131 1.386 1_545 S
C128 H117 0.950 . S
C128 C126 1.391 . S
C128 C129 1.400 . S
C129 C123 1.491 1_556 S
C129 C128 1.400 . S
C129 C130 1.398 . S
C130 H118 0.950 1_545 S
C130 C129 1.398 . S
C130 C131 1.389 1_545 S
C131 H119 0.959 . S
C131 C127 1.386 1_565 S
C131 C130 1.389 1_565 S
H132 C140 0.950 . S
H133 C145 0.942 1_655 S
H134 C142 0.950 . S
H135 C144 0.950 . S
H136 C146 0.950 . S
H137 C148 0.950 . S
H138 C150 0.950 . S
H139 C151 0.950 . S
C140 H132 0.950 . S
C140 C141 1.386 . S
C140 C142 1.391 . S
C141 C140 1.386 . S
C141 C145 1.393 . S
C142 H134 0.950 . S
C142 C140 1.391 . S
C142 C143 1.400 . S
C143 C142 1.400 . S
C143 C144 1.398 . S
C143 C149 1.491 . S
C144 H135 0.950 . S
C144 C143 1.398 . S
C144 C145 1.391 . S
C145 H133 0.942 1_455 S
C145 C141 1.393 . S
C145 C144 1.391 . S
C146 H136 0.950 . S
C146 C147 1.386 . S
C146 C148 1.391 . S
C147 C146 1.386 . S
C147 C151 1.393 . S
C148 H137 0.950 . S
C148 C146 1.391 . S
C148 C149 1.400 . S
C149 C143 1.491 . S
C149 C148 1.400 . S
C149 C150 1.398 . S
C150 H138 0.950 . S
C150 C149 1.398 . S
C150 C151 1.391 . S
C151 H139 0.950 . S
C151 C147 1.393 . S
C151 C150 1.391 . S
H152 C160 0.950 . S
H153 C165 0.950 . S
H154 C162 0.950 . S
H155 C164 0.950 . S
H156 C166 0.950 . S
H157 C168 0.950 . S
H158 C170 0.950 . S
H159 C171 0.949 . S
C160 H152 0.950 . S
C160 C161 1.386 . S
C160 C162 1.391 . S
C161 C160 1.386 . S
C161 C165 1.393 . S
C162 H154 0.950 . S
C162 C160 1.391 . S
C162 C163 1.400 . S
C163 C162 1.400 . S
C163 C164 1.398 . S
C163 C169 1.491 1_556 S
C164 H155 0.950 . S
C164 C163 1.398 . S
C164 C165 1.391 . S
C165 H153 0.950 . S
C165 C161 1.393 . S
C165 C164 1.391 . S
C166 H156 0.950 . S
C166 C167 1.386 . S
C166 C168 1.391 . S
C167 C166 1.386 . S
C167 C171 1.393 . S
C168 H157 0.950 . S
C168 C166 1.391 . S
C168 C169 1.400 . S
C169 C163 1.491 1_554 S
C169 C168 1.400 . S
C169 C170 1.398 . S
C170 H158 0.950 . S
C170 C169 1.398 . S
C170 C171 1.391 . S
C171 H159 0.949 . S
C171 C167 1.393 . S
C171 C170 1.391 . S
H172 C180 0.950 . S
H173 C185 0.960 . S
H174 C182 0.950 . S
H175 C184 0.950 1_655 S
H176 C186 0.950 . S
H177 C188 0.950 . S
H178 C190 0.950 . S
H179 C191 0.950 . S
C180 H172 0.950 . S
C180 C181 1.386 . S
C180 C182 1.391 . S
C181 C180 1.386 . S
C181 C185 1.385 1_455 S
C182 H174 0.950 . S
C182 C180 1.391 . S
C182 C183 1.400 . S
C183 C182 1.400 . S
C183 C184 1.398 . S
C183 C189 1.491 . S
C184 H175 0.950 1_455 S
C184 C183 1.398 . S
C184 C185 1.388 1_455 S
C185 H173 0.960 . S
C185 C181 1.385 1_655 S
C185 C184 1.388 1_655 S
C186 H176 0.950 . S
C186 C187 1.386 . S
C186 C188 1.391 . S
C187 C186 1.386 . S
C187 C191 1.393 . S
C188 H177 0.950 . S
C188 C186 1.391 . S
C188 C189 1.400 . S
C189 C183 1.491 . S
C189 C188 1.400 . S
C189 C190 1.398 . S
C190 H178 0.950 . S
C190 C189 1.398 . S
C190 C191 1.391 . S
C191 H179 0.950 . S
C191 C187 1.393 . S
C191 C190 1.391 . S
H192 C200 0.941 1_565 S
H193 C205 0.950 . S
H194 C202 0.950 . S
H195 C204 0.950 . S
H196 C206 0.950 . S
H197 C208 0.950 . S
H198 C210 0.950 . S
H199 C211 0.950 . S
C200 H192 0.941 1_545 S
C200 C201 1.386 . S
C200 C202 1.391 . S
C201 C200 1.386 . S
C201 C205 1.393 . S
C202 H194 0.950 . S
C202 C200 1.391 . S
C202 C203 1.400 . S
C203 C202 1.400 . S
C203 C204 1.398 . S
C203 C209 1.491 . S
C204 H195 0.950 . S
C204 C203 1.398 . S
C204 C205 1.391 . S
C205 H193 0.950 . S
C205 C201 1.393 . S
C205 C204 1.391 . S
C206 H196 0.950 . S
C206 C207 1.386 . S
C206 C208 1.391 . S
C207 C206 1.386 . S
C207 C211 1.393 . S
C208 H197 0.950 . S
C208 C206 1.391 . S
C208 C209 1.400 . S
C209 C203 1.491 . S
C209 C208 1.400 . S
C209 C210 1.398 . S
C210 H198 0.950 . S
C210 C209 1.398 . S
C210 C211 1.391 . S
C211 H199 0.950 . S
C211 C207 1.393 . S
C211 C210 1.391 . S
H212 C220 0.950 1_655 S
H213 C225 0.950 . S
H214 C222 0.950 1_655 S
H215 C224 0.950 . S
H216 C226 0.950 . S
H217 C228 0.950 . S
H218 C230 0.950 . S
H219 C231 0.950 . S
C220 H212 0.950 1_455 S
C220 C221 1.386 . S
C220 C222 1.391 . S
C221 C220 1.386 . S
C221 C225 1.393 . S
C222 H214 0.950 1_455 S
C222 C220 1.391 . S
C222 C223 1.400 . S
C223 C222 1.400 . S
C223 C224 1.398 . S
C223 C229 1.491 . S
C224 H215 0.950 . S
C224 C223 1.398 . S
C224 C225 1.391 . S
C225 H213 0.950 . S
C225 C221 1.393 . S
C225 C224 1.391 . S
C226 H216 0.950 . S
C226 C227 1.386 . S
C226 C228 1.391 . S
C227 C226 1.386 . S
C227 C231 1.393 1_455 S
C228 H217 0.950 . S
C228 C226 1.391 . S
C228 C229 1.400 . S
C229 C223 1.491 . S
C229 C228 1.400 . S
C229 C230 1.398 1_455 S
C230 H218 0.950 . S
C230 C229 1.398 1_655 S
C230 C231 1.391 . S
C231 H219 0.950 . S
C231 C227 1.393 1_655 S
C231 C230 1.391 . S
H232 C240 0.950 . S
H233 C245 0.950 . S
H234 C242 0.950 . S
H235 C244 0.950 . S
H236 C246 0.947 1_565 S
H237 C248 0.950 1_565 S
H238 C250 0.950 . S
H239 C251 0.950 . S
C240 H232 0.950 . S
C240 C241 1.386 . S
C240 C242 1.391 . S
C241 C240 1.386 . S
C241 C245 1.393 1_545 S
C242 H234 0.950 . S
C242 C240 1.391 . S
C242 C243 1.400 . S
C243 C242 1.400 . S
C243 C244 1.398 1_545 S
C243 C249 1.491 . S
C244 H235 0.950 . S
C244 C243 1.398 1_565 S
C244 C245 1.391 . S
C245 H233 0.950 . S
C245 C241 1.393 1_565 S
C245 C244 1.391 . S
C246 H236 0.947 1_545 S
C246 C247 1.386 . S
C246 C248 1.391 . S
C247 C246 1.386 . S
C247 C251 1.393 . S
C248 H237 0.950 1_545 S
C248 C246 1.391 . S
C248 C249 1.400 . S
C249 C243 1.491 . S
C249 C248 1.400 . S
C249 C250 1.398 . S
C250 H238 0.950 . S
C250 C249 1.398 . S
C250 C251 1.391 . S
C251 H239 0.950 . S
C251 C247 1.393 . S
C251 C250 1.391 . S
H252 C260 0.950 . S
H253 C265 0.950 . S
H254 C262 0.950 . S
H255 C264 0.950 . S
H256 C266 0.946 1_655 S
H257 C268 0.950 1_655 S
H258 C270 0.950 . S
H259 C271 0.950 . S
C260 H252 0.950 . S
C260 C261 1.386 . S
C260 C262 1.391 . S
C261 C260 1.386 . S
C261 C265 1.393 1_455 S
C262 H254 0.950 . S
C262 C260 1.391 . S
C262 C263 1.400 . S
C263 C262 1.400 . S
C263 C264 1.398 1_455 S
C263 C269 1.491 . S
C264 H255 0.950 . S
C264 C263 1.398 1_655 S
C264 C265 1.391 . S
C265 H253 0.950 . S
C265 C261 1.393 1_655 S
C265 C264 1.391 . S
C266 H256 0.946 1_455 S
C266 C267 1.386 . S
C266 C268 1.391 . S
C267 C266 1.386 . S
C267 C271 1.393 . S
C268 H257 0.950 1_455 S
C268 C266 1.391 . S
C268 C269 1.400 . S
C269 C263 1.491 . S
C269 C268 1.400 . S
C269 C270 1.398 . S
C270 H258 0.950 . S
C270 C269 1.398 . S
C270 C271 1.391 . S
C271 H259 0.950 . S
C271 C267 1.393 . S
C271 C270 1.391 . S
H272 C280 0.950 . S
H273 C285 0.950 . S
H274 C282 0.950 . S
H275 C284 0.950 . S
H276 C286 0.950 . S
H277 C288 0.950 . S
H278 C290 0.950 . S
H279 C291 0.950 . S
C280 H272 0.950 . S
C280 C281 1.386 . S
C280 C282 1.391 . S
C281 C280 1.386 . S
C281 C285 1.393 . S
C282 H274 0.950 . S
C282 C280 1.391 . S
C282 C283 1.400 . S
C283 C282 1.400 . S
C283 C284 1.398 . S
C283 C289 1.491 . S
C284 H275 0.950 . S
C284 C283 1.398 . S
C284 C285 1.391 . S
C285 H273 0.950 . S
C285 C281 1.393 . S
C285 C284 1.391 . S
C286 H276 0.950 . S
C286 C287 1.386 . S
C286 C288 1.391 . S
C287 C286 1.386 . S
C287 C291 1.393 . S
C288 H277 0.950 . S
C288 C286 1.391 . S
C288 C289 1.400 . S
C289 C283 1.491 . S
C289 C288 1.400 . S
C289 C290 1.398 . S
C290 H278 0.950 . S
C290 C289 1.398 . S
C290 C291 1.391 . S
C291 H279 0.950 . S
C291 C287 1.393 . S
C291 C290 1.391 . S
H292 C300 0.950 . S
H293 C305 0.950 . S
H294 C302 0.950 . S
H295 C304 0.950 . S
H296 C306 0.950 . S
H297 C308 0.950 . S
H298 C310 0.950 . S
H299 C311 0.950 . S
C300 H292 0.950 . S
C300 C301 1.386 . S
C300 C302 1.391 . S
C301 C300 1.386 . S
C301 C305 1.393 . S
C302 H294 0.950 . S
C302 C300 1.391 . S
C302 C303 1.400 . S
C303 C302 1.400 . S
C303 C304 1.398 . S
C303 C309 1.491 . S
C304 H295 0.950 . S
C304 C303 1.398 . S
C304 C305 1.391 . S
C305 H293 0.950 . S
C305 C301 1.393 . S
C305 C304 1.391 . S
C306 H296 0.950 . S
C306 C307 1.386 . S
C306 C308 1.391 . S
C307 C306 1.386 . S
C307 C311 1.393 . S
C308 H297 0.950 . S
C308 C306 1.391 . S
C308 C309 1.400 . S
C309 C303 1.491 . S
C309 C308 1.400 . S
C309 C310 1.398 . S
C310 H298 0.950 . S
C310 C309 1.398 . S
C310 C311 1.391 . S
C311 H299 0.950 . S
C311 C307 1.393 . S
C311 C310 1.391 . S
H312 C320 0.950 . S
H313 C325 0.950 . S
H314 C322 0.950 . S
H315 C324 0.950 . S
H316 C326 0.950 . S
H317 C328 0.950 . S
H318 C330 0.950 . S
H319 C331 0.950 . S
C320 H312 0.950 . S
C320 C321 1.386 . S
C320 C322 1.391 . S
C321 C320 1.386 . S
C321 C325 1.393 . S
C322 H314 0.950 . S
C322 C320 1.391 . S
C322 C323 1.400 . S
C323 C322 1.400 . S
C323 C324 1.398 . S
C323 C329 1.491 . S
C324 H315 0.950 . S
C324 C323 1.398 . S
C324 C325 1.391 . S
C325 H313 0.950 . S
C325 C321 1.393 . S
C325 C324 1.391 . S
C326 H316 0.950 . S
C326 C327 1.386 . S
C326 C328 1.391 . S
C327 C326 1.386 . S
C327 C331 1.393 . S
C328 H317 0.950 . S
C328 C326 1.391 . S
C328 C329 1.400 . S
C329 C323 1.491 . S
C329 C328 1.400 . S
C329 C330 1.398 . S
C330 H318 0.950 . S
C330 C329 1.398 . S
C330 C331 1.391 . S
C331 H319 0.950 . S
C331 C327 1.393 . S
C331 C330 1.391 . S
H332 C340 0.950 . S
H333 C345 0.950 . S
H334 C342 0.950 . S
H335 C344 0.950 . S
H336 C346 0.950 . S
H337 C348 0.950 . S
H338 C350 0.950 . S
H339 C351 0.950 . S
C340 H332 0.950 . S
C340 C341 1.386 . S
C340 C342 1.391 . S
C341 C340 1.386 . S
C341 C345 1.393 . S
C342 H334 0.950 . S
C342 C340 1.391 . S
C342 C343 1.400 . S
C343 C342 1.400 . S
C343 C344 1.398 . S
C343 C349 1.491 . S
C344 H335 0.950 . S
C344 C343 1.398 . S
C344 C345 1.391 . S
C345 H333 0.950 . S
C345 C341 1.393 . S
C345 C344 1.391 . S
C346 H336 0.950 . S
C346 C347 1.386 . S
C346 C348 1.391 . S
C347 C346 1.386 . S
C347 C351 1.393 . S
C348 H337 0.950 . S
C348 C346 1.391 . S
C348 C349 1.400 . S
C349 C343 1.491 . S
C349 C348 1.400 . S
C349 C350 1.398 . S
C350 H338 0.950 . S
C350 C349 1.398 . S
C350 C351 1.391 . S
C351 H339 0.950 . S
C351 C347 1.393 . S
C351 C350 1.391 . S
H352 C360 0.950 . S
H353 C365 0.950 . S
H354 C362 0.950 . S
H355 C364 0.950 . S
H356 C366 0.950 . S
H357 C368 0.950 . S
H358 C370 0.950 . S
H359 C371 0.950 . S
C360 H352 0.950 . S
C360 C361 1.386 . S
C360 C362 1.391 . S
C361 C360 1.386 . S
C361 C365 1.393 . S
C362 H354 0.950 . S
C362 C360 1.391 . S
C362 C363 1.400 . S
C363 C362 1.400 . S
C363 C364 1.398 . S
C363 C369 1.491 . S
C364 H355 0.950 . S
C364 C363 1.398 . S
C364 C365 1.391 . S
C365 H353 0.950 . S
C365 C361 1.393 . S
C365 C364 1.391 . S
C366 H356 0.950 . S
C366 C367 1.386 . S
C366 C368 1.391 . S
C367 C366 1.386 . S
C367 C371 1.393 . S
C368 H357 0.950 . S
C368 C366 1.391 . S
C368 C369 1.400 . S
C369 C363 1.491 . S
C369 C368 1.400 . S
C369 C370 1.398 . S
C370 H358 0.950 . S
C370 C369 1.398 . S
C370 C371 1.391 . S
C371 H359 0.950 . S
C371 C367 1.393 . S
C371 C370 1.391 . S
H372 C380 0.950 . S
H373 C385 0.950 . S
H374 C382 0.950 . S
H375 C384 0.950 . S
H376 C386 0.950 . S
H377 C388 0.950 . S
H378 C390 0.950 . S
H379 C391 0.950 . S
C380 H372 0.950 . S
C380 C381 1.386 . S
C380 C382 1.391 . S
C381 C380 1.386 . S
C381 C385 1.393 . S
C382 H374 0.950 . S
C382 C380 1.391 . S
C382 C383 1.400 . S
C383 C382 1.400 . S
C383 C384 1.398 . S
C383 C389 1.491 . S
C384 H375 0.950 . S
C384 C383 1.398 . S
C384 C385 1.391 . S
C385 H373 0.950 . S
C385 C381 1.393 . S
C385 C384 1.391 . S
C386 H376 0.950 . S
C386 C387 1.386 . S
C386 C388 1.391 . S
C387 C386 1.386 . S
C387 C391 1.393 . S
C388 H377 0.950 . S
C388 C386 1.391 . S
C388 C389 1.400 . S
C389 C383 1.491 . S
C389 C388 1.400 . S
C389 C390 1.398 . S
C390 H378 0.950 . S
C390 C389 1.398 . S
C390 C391 1.391 . S
C391 H379 0.950 . S
C391 C387 1.393 . S
C391 C390 1.391 . S
H392 C400 0.950 . S
H393 C405 0.950 . S
H394 C402 0.950 . S
H395 C404 0.950 . S
H396 C406 0.950 . S
H397 C408 0.950 . S
H398 C410 0.950 . S
H399 C411 0.950 . S
C400 H392 0.950 . S
C400 C401 1.386 . S
C400 C402 1.391 . S
C401 C400 1.386 . S
C401 C405 1.393 . S
C402 H394 0.950 . S
C402 C400 1.391 . S
C402 C403 1.400 . S
C403 C402 1.400 . S
C403 C404 1.398 . S
C403 C409 1.491 . S
C404 H395 0.950 . S
C404 C403 1.398 . S
C404 C405 1.391 . S
C405 H393 0.950 . S
C405 C401 1.393 . S
C405 C404 1.391 . S
C406 H396 0.950 . S
C406 C407 1.386 . S
C406 C408 1.391 . S
C407 C406 1.386 . S
C407 C411 1.393 . S
C408 H397 0.950 . S
C408 C406 1.391 . S
C408 C409 1.400 . S
C409 C403 1.491 . S
C409 C408 1.400 . S
C409 C410 1.398 . S
C410 H398 0.950 . S
C410 C409 1.398 . S
C410 C411 1.391 . S
C411 H399 0.950 . S
C411 C407 1.393 . S
C411 C410 1.391 . S
H412 C420 0.950 . S
H413 C425 0.950 . S
H414 C422 0.950 . S
H415 C424 0.950 . S
H416 C426 0.950 . S
H417 C428 0.950 . S
H418 C430 0.950 . S
H419 C431 0.950 . S
C420 H412 0.950 . S
C420 C421 1.386 . S
C420 C422 1.391 . S
C421 C420 1.386 . S
C421 C425 1.393 . S
C422 H414 0.950 . S
C422 C420 1.391 . S
C422 C423 1.400 . S
C423 C422 1.400 . S
C423 C424 1.398 . S
C423 C429 1.491 . S
C424 H415 0.950 . S
C424 C423 1.398 . S
C424 C425 1.391 . S
C425 H413 0.950 . S
C425 C421 1.393 . S
C425 C424 1.391 . S
C426 H416 0.950 . S
C426 C427 1.386 . S
C426 C428 1.391 . S
C427 C426 1.386 . S
C427 C431 1.393 . S
C428 H417 0.950 . S
C428 C426 1.391 . S
C428 C429 1.400 . S
C429 C423 1.491 . S
C429 C428 1.400 . S
C429 C430 1.398 . S
C430 H418 0.950 . S
C430 C429 1.398 . S
C430 C431 1.391 . S
C431 H419 0.950 . S
C431 C427 1.393 . S
C431 C430 1.391 . S
C121 C8 1.715 . S
C127 C64 1.706 . S
C141 C22 1.713 . S
C147 C78 1.707 . S
C161 C92 1.713 . S
C167 C36 1.707 . S
C181 C106 1.720 . S
C187 C50 1.713 . S
C201 C6 1.264 . S
C207 C34 1.266 . S
C221 C20 1.286 . S
C227 C48 1.282 . S
C241 C90 1.291 . S
C247 C62 1.288 . S
C261 C76 1.292 . S
C267 C104 1.288 . S
C281 C79 2.061 . S
C287 C9 2.074 . S
C301 C23 2.070 . S
C307 C93 2.074 . S
C321 C107 2.065 . S
C327 C37 2.076 . S
C341 C51 2.072 . S
C347 C65 2.061 . S
C361 C91 0.890 . S
C367 C49 0.872 . S
C381 C7 0.928 . S
C387 C105 0.931 . S
C401 C21 0.892 . S
C407 C63 0.873 . S
C421 C77 0.889 . S
C427 C35 0.871 . S
