# Generated by pormake.
# Topology dft, (4)-cn, num edge types: 1
# Building blocks:
#     Node 0, Type 0, BuildingBlock: KUFVIS_clean_sbu_0, # of connection points: 4
#     Node 1, Type 0, BuildingBlock: KUFVIS_clean_sbu_0, # of connection points: 4
#     Node 2, Type 0, BuildingBlock: KUFVIS_clean_sbu_0, # of connection points: 4
#     Node 3, Type 0, BuildingBlock: KUFVIS_clean_sbu_0, # of connection points: 4
#     Node 4, Type 0, BuildingBlock: KUFVIS_clean_sbu_0, # of connection points: 4
#     Node 5, Type 0, BuildingBlock: KUFVIS_clean_sbu_0, # of connection points: 4
#     Node 6, Type 0, BuildingBlock: KUFVIS_clean_sbu_0, # of connection points: 4
#     Node 7, Type 0, BuildingBlock: KUFVIS_clean_sbu_0, # of connection points: 4
#     Edge 8, Type (0, 0), BuildingBlock: OJICUG_clean_linker_0, # of connection points: 2
#     Edge 9, Type (0, 0), BuildingBlock: OJICUG_clean_linker_0, # of connection points: 2
#     Edge 10, Type (0, 0), BuildingBlock: OJICUG_clean_linker_0, # of connection points: 2
#     Edge 11, Type (0, 0), BuildingBlock: OJICUG_clean_linker_0, # of connection points: 2
#     Edge 12, Type (0, 0), BuildingBlock: OJICUG_clean_linker_0, # of connection points: 2
#     Edge 13, Type (0, 0), BuildingBlock: OJICUG_clean_linker_0, # of connection points: 2
#     Edge 14, Type (0, 0), BuildingBlock: OJICUG_clean_linker_0, # of connection points: 2
#     Edge 15, Type (0, 0), BuildingBlock: OJICUG_clean_linker_0, # of connection points: 2
#     Edge 16, Type (0, 0), BuildingBlock: OJICUG_clean_linker_0, # of connection points: 2
#     Edge 17, Type (0, 0), BuildingBlock: OJICUG_clean_linker_0, # of connection points: 2
#     Edge 18, Type (0, 0), BuildingBlock: OJICUG_clean_linker_0, # of connection points: 2
#     Edge 19, Type (0, 0), BuildingBlock: OJICUG_clean_linker_0, # of connection points: 2
#     Edge 20, Type (0, 0), BuildingBlock: OJICUG_clean_linker_0, # of connection points: 2
#     Edge 21, Type (0, 0), BuildingBlock: OJICUG_clean_linker_0, # of connection points: 2
#     Edge 22, Type (0, 0), BuildingBlock: OJICUG_clean_linker_0, # of connection points: 2
#     Edge 23, Type (0, 0), BuildingBlock: OJICUG_clean_linker_0, # of connection points: 2
# Relax obj value: 0.171
# Max RMSD: 0.157
# Mean RMSD: 0.157
data_MOF--net-dft--node1-KUFVIS_clean_sbu_0--edge1-OJICUG_clean_linker_0
_symmetry_space_group_name_H-M    P1
_symmetry_Int_Tables_number       1
_symmetry_cell_setting            triclinic
loop_
_symmetry_equiv_pos_as_xyz
'x, y, z'
_cell_length_a     24.479983
_cell_length_b     24.482464
_cell_length_c     30.473069
_cell_angle_alpha  89.818851
_cell_angle_beta   90.013266
_cell_angle_gamma 89.973587
loop_
_atom_site_label
_atom_site_type_symbol
_atom_site_fract_x
_atom_site_fract_y
_atom_site_fract_z
_atom_type_partial_charge
Mn0 Mn 0.33891 0.07103 0.17327 0.0
Mn1 Mn 0.39652 0.18419 0.12721 0.0
C2 C 0.33398 0.15618 0.20698 0.0
C3 C 0.26836 1.00907 0.19345 0.0
C4 C 0.46289 0.09296 0.16697 0.0
O5 O 0.34037 0.05105 0.10798 0.0
O6 O 0.3813 0.12857 0.08302 0.0
C7 C 0.30637 0.2234 0.07026 0.0
N8 N 0.34313 0.23255 0.10299 0.0
C9 C 0.31939 0.32787 0.10579 0.0
C10 C 0.28086 0.31938 0.07244 0.0
C11 C 0.27415 0.26685 0.05476 0.0
C12 C 0.3495 0.28281 0.12052 0.0
H13 H 0.30174 0.18332 0.05608 0.0
C14 C 0.35982 0.08159 0.07738 0.0
O15 O 0.31949 0.99579 0.19335 0.0
O16 O 0.25711 0.05776 0.17877 0.0
N17 N 0.41234 0.24159 0.16737 0.0
C18 C 0.45066 0.24246 0.19976 0.0
C19 C 0.46465 0.29234 0.2192 0.0
C20 C 0.4391 0.34064 0.2051 0.0
C21 C 0.39812 0.33844 0.173 0.0
C22 C 0.38657 0.28766 0.15433 0.0
H23 H 0.4716 0.20564 0.20972 0.0
O24 O 0.33494 0.11152 0.23027 0.0
O25 O 0.34135 0.15001 0.16537 0.0
O26 O 0.42254 0.06257 0.17678 0.0
O27 O 0.45723 0.13991 0.1498 0.0
C28 C 0.36944 0.38474 0.15785 0.0
C29 C 0.32945 0.37931 0.12478 0.0
H30 H 0.25635 0.3529 0.06006 0.0
H31 H 0.24465 0.26002 0.0289 0.0
H32 H 0.496 0.29377 0.24422 0.0
H33 H 0.45204 0.37919 0.21872 0.0
H34 H 0.37776 0.42472 0.17138 0.0
H35 H 0.30719 0.41508 0.11379 0.0
Mn36 Mn 0.05159 0.35793 0.6738 0.0
Mn37 Mn 0.93916 0.41385 0.62527 0.0
C38 C 0.9663 0.35471 0.70759 0.0
C39 C 0.1135 0.28797 0.69578 0.0
C40 C 0.03182 0.48126 0.66204 0.0
O41 O 0.07101 0.356 0.6084 0.0
O42 O 0.99283 0.39237 0.58075 0.0
C43 C 0.89461 0.32131 0.5739 0.0
N44 N 0.88802 0.36069 0.60496 0.0
C45 C 0.7922 0.34035 0.61166 0.0
C46 C 0.79803 0.29935 0.57998 0.0
C47 C 0.84953 0.28961 0.5612 0.0
C48 C 0.83874 0.37001 0.62354 0.0
H49 H 0.93399 0.31383 0.55921 0.0
C50 C 0.03974 0.37 0.57628 0.0
O51 O 0.1268 0.33902 0.69417 0.0
O52 O 0.06468 0.27629 0.68171 0.0
N53 N 0.88381 0.43462 0.66604 0.0
C54 C 0.88576 0.47397 0.69749 0.0
C55 C 0.83747 0.48962 0.71879 0.0
C56 C 0.7878 0.4648 0.70738 0.0
C57 C 0.78711 0.423 0.676 0.0
C58 C 0.83649 0.40938 0.65573 0.0
H59 H 0.92367 0.49405 0.7056 0.0
O60 O 1.01087 0.35655 0.73088 0.0
O61 O 0.97278 0.36064 0.66579 0.0
O62 O 0.0607 0.44132 0.67518 0.0
O63 O 0.98591 0.47502 0.64339 0.0
C64 C 0.73932 0.39501 0.66343 0.0
C65 C 0.74201 0.35314 0.63179 0.0
H66 H 0.76328 0.2751 0.56983 0.0
H67 H 0.85437 0.25801 0.53675 0.0
H68 H 0.83833 0.52148 0.74331 0.0
H69 H 0.7505 0.47857 0.72277 0.0
H70 H 0.70028 0.40522 0.67791 0.0
H71 H 0.70514 0.33134 0.62293 0.0
Mn72 Mn 0.80844 0.03961 0.17135 0.0
Mn73 Mn 0.756 0.9284 0.1194 0.0
C74 C 0.8158 0.95255 0.20159 0.0
C75 C 0.87693 0.10242 0.19365 0.0
C76 C 0.68577 0.01496 0.16223 0.0
O77 O 0.80538 0.06441 0.10699 0.0
O78 O 0.77321 0.98606 0.07685 0.0
C79 C 0.85071 0.89282 0.06595 0.0
N80 N 0.81142 0.88165 0.09632 0.0
C81 C 0.8372 0.78681 0.09881 0.0
C82 C 0.87782 0.79725 0.06744 0.0
C83 C 0.88482 0.85056 0.05117 0.0
C84 C 0.80491 0.83067 0.11268 0.0
H85 H 0.85634 0.93372 0.05349 0.0
C86 C 0.79159 0.03483 0.07395 0.0
O87 O 0.82537 0.11397 0.19444 0.0
O88 O 0.88967 0.05529 0.17688 0.0
N89 N 0.73881 0.86921 0.15785 0.0
C90 C 0.69947 0.86671 0.18939 0.0
C91 C 0.68633 0.81613 0.20832 0.0
C92 C 0.71374 0.76881 0.19458 0.0
C93 C 0.75553 0.77268 0.16329 0.0
C94 C 0.7662 0.82406 0.14509 0.0
H95 H 0.67732 0.9028 0.19921 0.0
O96 O 0.81416 0.99551 0.22661 0.0
O97 O 0.80873 0.96143 0.1602 0.0
O98 O 0.725 0.04428 0.17597 0.0
O99 O 0.69319 0.97114 0.14079 0.0
C100 C 0.78628 0.72752 0.1488 0.0
C101 C 0.82762 0.73471 0.11704 0.0
H102 H 0.90404 0.76472 0.05581 0.0
H103 H 0.91629 0.859 0.02715 0.0
H104 H 0.65436 0.81343 0.23275 0.0
H105 H 0.70178 0.72971 0.20793 0.0
H106 H 0.77868 0.68711 0.16198 0.0
H107 H 0.8516 0.69986 0.10669 0.0
Mn108 Mn 0.08881 0.82583 0.67043 0.0
Mn109 Mn 0.20167 0.77371 0.62057 0.0
C110 C 0.17505 0.83334 0.70238 0.0
C111 C 0.02538 0.89442 0.69125 0.0
C112 C 0.11242 0.70349 0.66038 0.0
O113 O 0.06608 0.82216 0.60549 0.0
O114 O 0.14681 0.79362 0.57666 0.0
C115 C 0.24262 0.86909 0.57019 0.0
N116 N 0.25106 0.82846 0.60006 0.0
C117 C 0.347 0.84912 0.60407 0.0
C118 C 0.3394 0.8911 0.57325 0.0
C119 C 0.28687 0.90146 0.55656 0.0
C120 C 0.30113 0.81917 0.61721 0.0
H121 H 0.2023 0.87733 0.55763 0.0
C122 C 0.0976 0.81056 0.573 0.0
O123 O 0.01373 0.84291 0.69198 0.0
O124 O 0.07303 0.90707 0.67525 0.0
N125 N 0.25825 0.75364 0.66053 0.0
C126 C 0.25802 0.71297 0.69113 0.0
C127 C 0.30747 0.69615 0.71006 0.0
C128 C 0.35653 0.72106 0.69708 0.0
C129 C 0.35552 0.76431 0.66678 0.0
C130 C 0.30502 0.77909 0.64891 0.0
H131 H 0.22063 0.69241 0.70005 0.0
O132 O 0.13126 0.83182 0.72656 0.0
O133 O 0.16735 0.82592 0.66094 0.0
O134 O 0.08381 0.74253 0.6753 0.0
O135 O 0.15641 0.7111 0.63909 0.0
C136 C 0.40268 0.79231 0.65264 0.0
C137 C 0.39828 0.83543 0.62199 0.0
H138 H 0.37355 0.9157 0.56225 0.0
H139 H 0.28058 0.93406 0.53302 0.0
H140 H 0.30797 0.6631 0.73372 0.0
H141 H 0.39467 0.70604 0.7103 0.0
H142 H 0.44255 0.78113 0.66513 0.0
H143 H 0.4347 0.85728 0.61199 0.0
Mn144 Mn 0.33735 0.07331 0.7981 0.0
Mn145 Mn 0.39675 0.95901 0.8407 0.0
C146 C 0.33197 0.98916 0.76278 0.0
C147 C 0.2666 0.13588 0.77942 0.0
C148 C 0.4616 0.05149 0.80186 0.0
O149 O 0.33983 0.09108 0.86388 0.0
O150 O 0.38343 0.0137 0.88595 0.0
C151 C 0.30843 0.91906 0.89911 0.0
N152 N 0.34407 0.91039 0.8655 0.0
C153 C 0.31994 0.81522 0.86205 0.0
C154 C 0.28255 0.82323 0.8963 0.0
C155 C 0.27659 0.87544 0.91475 0.0
C156 C 0.34966 0.86046 0.84721 0.0
H157 H 0.30441 0.95888 0.91387 0.0
C158 C 0.36155 0.06015 0.89327 0.0
O159 O 0.31771 0.14914 0.77968 0.0
O160 O 0.25545 0.0868 0.79331 0.0
N161 N 0.41097 0.90235 0.79949 0.0
C162 C 0.44837 0.90191 0.76643 0.0
C163 C 0.46172 0.85232 0.74623 0.0
C164 C 0.43651 0.80386 0.76031 0.0
C165 C 0.39645 0.80563 0.79315 0.0
C166 C 0.38555 0.85612 0.81256 0.0
H167 H 0.46916 0.93884 0.75653 0.0
O168 O 0.33253 0.03447 0.74032 0.0
O169 O 0.34025 0.9941 0.80437 0.0
O170 O 0.42082 0.08221 0.79405 0.0
O171 O 0.4567 1.00358 0.81733 0.0
C172 C 0.36817 0.75914 0.80836 0.0
C173 C 0.32925 0.7641 0.84228 0.0
H174 H 0.25837 0.78956 0.9088 0.0
H175 H 0.24798 0.88189 0.9413 0.0
H176 H 0.49238 0.85121 0.72067 0.0
H177 H 0.44904 0.7655 0.74611 0.0
H178 H 0.37601 0.71938 0.79424 0.0
H179 H 0.30729 0.72821 0.85332 0.0
Mn180 Mn 0.09251 0.32056 0.30029 0.0
Mn181 Mn 0.20609 0.37383 0.34837 0.0
C182 C 0.17814 0.31296 0.26745 0.0
C183 C 0.02868 0.25196 0.28031 0.0
C184 C 0.11598 0.4431 0.30889 0.0
O185 O 0.07107 0.32468 0.36547 0.0
O186 O 0.15183 0.35495 0.39304 0.0
C187 C 0.24781 0.27976 0.39997 0.0
N188 N 0.25576 0.31947 0.36923 0.0
C189 C 0.35149 0.29808 0.36418 0.0
C190 C 0.34437 0.25696 0.39581 0.0
C191 C 0.2922 0.24746 0.4135 0.0
C192 C 0.30552 0.32807 0.35127 0.0
H193 H 0.20779 0.27228 0.41346 0.0
C194 C 0.10291 0.3375 0.39748 0.0
O195 O 0.01705 0.30348 0.27967 0.0
O196 O 0.0766 0.23927 0.29582 0.0
N197 N 0.26206 0.39291 0.30759 0.0
C198 C 0.26137 0.43284 0.27638 0.0
C199 C 0.31046 0.44875 0.25641 0.0
C200 C 0.35963 0.42369 0.26897 0.0
C201 C 0.35906 0.38121 0.29997 0.0
C202 C 0.30892 0.36737 0.31892 0.0
H203 H 0.22391 0.45351 0.26772 0.0
O204 O 0.13393 0.31424 0.24375 0.0
O205 O 0.17121 0.32076 0.30894 0.0
O206 O 0.08711 0.40371 0.29503 0.0
O207 O 0.1606 0.43606 0.32944 0.0
C208 C 0.40634 0.35307 0.31374 0.0
C209 C 0.4024 0.31082 0.34519 0.0
H210 H 0.37863 0.23238 0.40669 0.0
H211 H 0.28631 0.2156 0.43773 0.0
H212 H 0.31062 0.48122 0.23223 0.0
H213 H 0.39754 0.43803 0.25491 0.0
H214 H 0.44595 0.36349 0.30035 0.0
H215 H 0.43889 0.28887 0.35493 0.0
Mn216 Mn 0.80606 0.10839 0.79916 0.0
Mn217 Mn 0.75254 0.21977 0.85019 0.0
C218 C 0.81315 0.19511 0.76836 0.0
C219 C 0.87462 0.04532 0.7775 0.0
C220 C 0.68326 0.13226 0.80772 0.0
O221 O 0.80301 0.08443 0.86367 0.0
O222 O 0.77014 0.1628 0.89332 0.0
C223 C 0.84622 0.25707 0.90403 0.0
N224 N 0.8073 0.26736 0.87313 0.0
C225 C 0.83226 0.36236 0.86978 0.0
C226 C 0.87258 0.3528 0.9016 0.0
C227 C 0.87979 0.29985 0.91859 0.0
C228 C 0.8005 0.31802 0.85617 0.0
H229 H 0.85191 0.21647 0.91713 0.0
C230 C 0.78902 0.11422 0.89653 0.0
O231 O 0.82309 0.03379 0.77675 0.0
O232 O 0.88734 0.0927 0.79384 0.0
N233 N 0.73502 0.27827 0.81111 0.0
C234 C 0.69591 0.27995 0.77934 0.0
C235 C 0.68261 0.3301 0.75971 0.0
C236 C 0.70959 0.37783 0.77302 0.0
C237 C 0.75111 0.3748 0.80463 0.0
C238 C 0.762 0.32381 0.82348 0.0
H239 H 0.67409 0.24356 0.76982 0.0
O240 O 0.8117 0.15185 0.74365 0.0
O241 O 0.80589 0.1867 0.80981 0.0
O242 O 0.7228 0.10322 0.79425 0.0
O243 O 0.69018 0.17627 0.82899 0.0
C244 C 0.78137 0.42042 0.8188 0.0
C245 C 0.82244 0.41407 0.85092 0.0
H246 H 0.89839 0.38573 0.91307 0.0
H247 H 0.91097 0.2921 0.94301 0.0
H248 H 0.65085 0.33215 0.73504 0.0
H249 H 0.69754 0.41661 0.75906 0.0
H250 H 0.77359 0.46054 0.80512 0.0
H251 H 0.84602 0.44928 0.86104 0.0
Mn252 Mn 0.05171 0.78773 0.29699 0.0
Mn253 Mn 0.93893 0.73033 0.3437 0.0
C254 C 0.96704 0.79089 0.26223 0.0
C255 C 0.11387 0.8579 0.27617 0.0
C256 C 0.03275 0.6642 0.30748 0.0
O257 O 0.06974 0.78932 0.36261 0.0
O258 O 0.99165 0.75149 0.38901 0.0
C259 C 0.89267 0.82129 0.3959 0.0
N260 N 0.88702 0.78273 0.36405 0.0
C261 C 0.7911 0.8023 0.35667 0.0
C262 C 0.79601 0.84261 0.38902 0.0
C263 C 0.84708 0.85231 0.40856 0.0
C264 C 0.83814 0.77339 0.34481 0.0
H265 H 0.93164 0.8285 0.41136 0.0
C266 C 0.03811 0.77451 0.39423 0.0
O267 O 0.12722 0.80687 0.27777 0.0
O268 O 0.06471 0.86947 0.28955 0.0
N269 N 0.88442 0.70982 0.30211 0.0
C270 C 0.88718 0.67088 0.27038 0.0
C271 C 0.83934 0.65508 0.24852 0.0
C272 C 0.78927 0.6793 0.2597 0.0
C273 C 0.78775 0.72069 0.2914 0.0
C274 C 0.83674 0.73455 0.31219 0.0
H275 H 0.92538 0.65118 0.26249 0.0
O276 O 1.01203 0.78937 0.23946 0.0
O277 O 0.97277 0.78448 0.30406 0.0
O278 O 0.06153 0.70454 0.29519 0.0
O279 O 0.9864 0.66978 0.32551 0.0
C280 C 0.73949 0.74796 0.30388 0.0
C281 C 0.74131 0.78935 0.33597 0.0
H282 H 0.76084 0.86626 0.39919 0.0
H283 H 0.85117 0.88325 0.43362 0.0
H284 H 0.84084 0.62352 0.22376 0.0
H285 H 0.7523 0.66537 0.24387 0.0
H286 H 0.70073 0.73755 0.28901 0.0
H287 H 0.70408 0.81055 0.3448 0.0
C288 C 0.40721 0.06285 0.00905 0.0
C289 C 0.35745 0.06573 0.03153 0.0
H290 H 0.44737 0.06297 0.94695 0.0
C291 C 0.3087 0.07291 0.00789 0.0
H292 H 0.44544 0.05976 0.02687 0.0
C293 C 0.30991 0.07656 0.96201 0.0
C294 C 0.35998 0.07382 0.93974 0.0
H295 H 0.27021 0.07788 0.02495 0.0
H296 H 0.27189 0.07964 0.94396 0.0
C297 C 0.40847 0.06691 0.96366 0.0
C298 C 0.01633 0.3625 0.49668 0.0
C299 C 0.05525 0.357 0.53075 0.0
H300 H 1.00042 0.3588 0.42759 0.0
C301 C 0.10762 0.33817 0.52065 0.0
H302 H 0.9751 0.37627 0.50324 0.0
C303 C 0.1217 0.32815 0.47718 0.0
C304 C 0.08355 0.33613 0.44302 0.0
H305 H 0.13818 0.33281 0.54601 0.0
H306 H 0.16335 0.31629 0.47023 0.0
C307 C 0.03027 0.35174 0.45325 0.0
C308 C 0.79822 0.03761 0.95025 0.0
C309 C 0.79505 0.09356 0.94167 0.0
H310 H 0.79913 0.97527 -0.00112 0.0
C311 C 0.7952 0.13065 0.97713 0.0
H312 H 0.7983 1.00821 0.92375 0.0
C313 C 0.79652 0.11202 0.02034 0.0
C314 C 0.7968 0.05597 0.0289 0.0
H315 H 0.79314 0.17431 0.97167 0.0
H316 H 0.7951 0.14133 0.04688 0.0
C317 C 0.79863 0.01897 -0.00656 0.0
C318 C 0.10174 0.81324 0.45022 0.0
C319 C 0.05217 0.78803 0.43998 0.0
H320 H 0.15412 0.84178 0.50076 0.0
C321 C 0.01412 0.77775 0.47397 0.0
H322 H 0.13139 0.82265 0.42492 0.0
C323 C 0.02658 0.78997 0.51746 0.0
C324 C 0.07748 0.81205 0.52775 0.0
H325 H 0.97488 0.75912 0.4673 0.0
H326 H 0.99798 0.77887 0.54311 0.0
C327 C 0.1143 0.82495 0.4937 0.0
C328 C 0.56346 0.1085 0.1764 0.0
C329 C 0.51942 0.07193 0.1723 0.0
H330 H 0.6503 0.11918 0.17731 0.0
C331 C 0.53062 0.01582 0.16869 0.0
H332 H 0.55623 0.15199 0.17932 0.0
C333 C 0.58469 0.99708 0.16669 0.0
C334 C 0.62874 0.03393 0.16917 0.0
H335 H 0.49767 0.98664 0.16519 0.0
H336 H 0.59195 0.95381 0.1622 0.0
C337 C 0.61744 0.08967 0.17533 0.0
C338 C 0.10942 0.54832 0.66535 0.0
C339 C 0.05301 0.53777 0.66658 0.0
H340 H 0.17247 0.60899 0.66182 0.0
C341 C 0.01665 0.5822 0.66894 0.0
H342 H 0.13845 0.51502 0.66327 0.0
C343 C 0.03613 0.63594 0.66903 0.0
C344 C 0.09238 0.6466 0.66565 0.0
H345 H 0.97294 0.57547 0.67001 0.0
H346 H 1.00692 0.66918 0.66989 0.0
C347 C 0.12886 0.60216 0.66433 0.0
C348 C 0.58195 0.14892 0.80372 0.0
C349 C 0.62649 0.11275 0.80052 0.0
H350 H 0.49484 0.15816 0.80553 0.0
C351 C 0.61598 0.05706 0.79322 0.0
H352 H 0.58859 0.19214 0.80903 0.0
C353 C 0.56229 0.03756 0.79174 0.0
C354 C 0.51777 0.07339 0.79666 0.0
H355 H 0.64925 0.02806 0.7906 0.0
H356 H 0.55568 0.99408 0.78791 0.0
C357 C 0.52818 0.12952 0.80139 0.0
C358 C 0.13128 0.54454 0.30473 0.0
C359 C 0.09532 0.49973 0.30347 0.0
H360 H 0.1398 0.63175 0.30595 0.0
C361 C 0.03894 0.50973 0.30012 0.0
H362 H 0.17498 0.5382 0.30717 0.0
C363 C 0.0188 0.56321 0.30026 0.0
C364 C 0.05462 0.60801 0.30273 0.0
H365 H 1.01012 0.47619 0.29927 0.0
H366 H 0.97501 0.56944 0.29921 0.0
C367 C 0.11117 0.59813 0.30385 0.0
C368 C 0.23502 0.27468 0.20731 0.0
C369 C 0.22565 0.28127 0.25215 0.0
H370 H 0.27012 0.22439 0.15864 0.0
C371 C 0.25433 0.24769 0.28186 0.0
H372 H 0.21099 0.297 0.18336 0.0
C373 C 0.29437 0.2114 0.2676 0.0
C374 C 0.30265 0.20372 0.22272 0.0
H375 H 0.24266 0.24554 0.31578 0.0
H376 H 0.31509 0.18587 0.29148 0.0
C377 C 0.27102 0.23445 0.19292 0.0
C378 C 0.91234 0.31347 0.76869 0.0
C379 C 0.91939 0.32252 0.72377 0.0
H380 H 0.87993 0.26009 0.81686 0.0
C381 C 0.88916 0.29044 0.69417 0.0
H382 H 0.93769 0.33437 0.79246 0.0
C383 C 0.84965 0.25375 0.70863 0.0
C384 C 0.84375 0.24355 0.75343 0.0
H385 H 0.89938 0.28939 0.65998 0.0
H386 H 0.82766 0.22961 0.68469 0.0
C387 C 0.87715 0.27234 0.78304 0.0
C388 C 0.88949 0.85487 0.27546 0.0
C389 C 0.92053 0.82358 0.24583 0.0
H390 H 0.828 0.9158 0.28492 0.0
C391 C 0.91478 0.834 0.20096 0.0
H392 H 0.89864 0.8548 0.30986 0.0
C393 C 0.88016 0.8757 0.18674 0.0
C394 C 0.84604 0.90377 0.21628 0.0
H395 H 0.94073 0.8137 0.17727 0.0
H396 H 0.88377 0.88883 0.15317 0.0
C397 C 0.85061 0.89225 0.26096 0.0
C398 C 0.23326 0.87052 0.76214 0.0
C399 C 0.22279 0.86491 0.71737 0.0
H400 H 0.26954 0.91963 0.81101 0.0
C401 C 0.25056 0.89928 0.6877 0.0
H402 H 0.20996 0.84752 0.78612 0.0
C403 C 0.29073 0.93548 0.70187 0.0
C404 C 0.30018 0.94209 0.74671 0.0
H405 H 0.23805 0.90207 0.654 0.0
H406 H 0.31072 0.96165 0.67805 0.0
C407 C 0.26948 0.9105 0.77654 0.0
C408 C 0.96852 0.02393 0.74563 0.0
C409 C 0.91518 1.00732 0.75694 0.0
H410 H 0.04502 1.00205 0.71521 0.0
C411 C 0.8987 0.95427 0.74524 0.0
H412 H 0.98247 0.06467 0.75363 0.0
C413 C 0.93415 0.91878 0.72323 0.0
C414 C 0.98736 0.93506 0.71166 0.0
H415 H 0.85798 0.93992 0.75305 0.0
H416 H 0.91966 0.87817 0.71535 0.0
C417 C 1.00415 0.98826 0.72309 0.0
C418 C 0.17293 0.98795 0.22303 0.0
C419 C 0.22673 0.97128 0.21315 0.0
H420 H 0.09503 0.96595 0.25128 0.0
C421 C 0.24253 0.91808 0.22531 0.0
H422 H 0.15941 0.02878 0.21461 0.0
C423 C 0.20614 0.88259 0.24642 0.0
C424 C 0.15243 0.89882 0.25646 0.0
H425 H 0.2835 0.90359 0.21865 0.0
H426 H 0.22037 0.84196 0.25476 0.0
C427 C 0.1362 0.95213 0.24451 0.0
C428 C 0.13544 0.19336 0.72699 0.0
C429 C 0.15161 0.24706 0.71617 0.0
H430 H 0.15835 0.11611 0.75607 0.0
C431 C 0.20476 0.26347 0.7278 0.0
H432 H 0.09469 0.17937 0.719 0.0
C433 C 0.24072 0.22772 0.74916 0.0
C434 C 0.22506 0.17406 0.76001 0.0
H435 H 0.2189 0.3044 0.72042 0.0
H436 H 0.28133 0.24234 0.75695 0.0
C437 C 0.17174 0.15728 0.74872 0.0
C438 C 1.00708 0.15859 0.24777 0.0
C439 C 0.99032 0.21148 0.2601 0.0
H440 H 0.98516 0.08283 0.21633 0.0
C441 C 0.93681 0.22781 0.24943 0.0
H442 H 0.04817 0.14479 0.25494 0.0
C443 C 0.90108 0.1927 0.22731 0.0
C444 C 0.91757 0.14001 0.21459 0.0
H445 H 0.92232 0.26819 0.25804 0.0
H446 H 0.86018 0.2071 0.22016 0.0
C447 C 0.97117 0.12332 0.22512 0.0
loop_
_geom_bond_atom_site_label_1
_geom_bond_atom_site_label_2
_geom_bond_distance
_geom_bond_site_symmetry_2
_ccdc_geom_bond_type
Mn0 O5 2.095 . S
Mn0 O15 2.162 1_545 S
Mn0 O16 2.297 . S
Mn0 O24 2.385 . S
Mn0 O25 2.209 . S
Mn0 O26 2.094 . S
Mn1 O6 2.121 . S
Mn1 N8 2.257 . S
Mn1 N17 2.282 . S
Mn1 O25 2.215 . S
Mn1 O27 2.117 . S
C2 O24 1.234 . S
C2 O25 1.283 . S
C3 O15 1.281 . S
C3 O16 1.236 1_565 S
C4 O26 1.240 . S
C4 O27 1.264 . S
O5 Mn0 2.095 . S
O5 C14 1.250 . S
O6 Mn1 2.121 . S
O6 C14 1.258 . S
C7 N8 1.326 . S
C7 C11 1.460 . S
C7 H13 0.929 . S
N8 Mn1 2.257 . S
N8 C7 1.326 . S
N8 C12 1.362 . S
C9 C10 1.258 . S
C9 C12 1.431 . S
C9 C29 1.449 . S
C10 C9 1.258 . S
C10 C11 1.477 . S
C10 H30 0.931 . S
C11 C7 1.460 . S
C11 C10 1.477 . S
C11 H31 0.930 . S
C12 N8 1.362 . S
C12 C9 1.431 . S
C12 C22 1.476 . S
H13 C7 0.929 . S
C14 O5 1.250 . S
C14 O6 1.258 . S
O15 Mn0 2.162 1_565 S
O15 C3 1.281 . S
O16 Mn0 2.297 . S
O16 C3 1.236 1_545 S
N17 Mn1 2.282 . S
N17 C18 1.328 . S
N17 C22 1.318 . S
C18 N17 1.328 . S
C18 C19 1.457 . S
C18 H23 0.929 . S
C19 C18 1.457 . S
C19 C20 1.291 . S
C19 H32 0.931 . S
C20 C19 1.291 . S
C20 C21 1.373 . S
C20 H33 0.929 . S
C21 C20 1.373 . S
C21 C22 1.396 . S
C21 C28 1.403 . S
C22 C12 1.476 . S
C22 N17 1.318 . S
C22 C21 1.396 . S
H23 C18 0.929 . S
O24 Mn0 2.385 . S
O24 C2 1.234 . S
O25 Mn0 2.209 . S
O25 Mn1 2.215 . S
O25 C2 1.283 . S
O26 Mn0 2.094 . S
O26 C4 1.240 . S
O27 Mn1 2.117 . S
O27 C4 1.264 . S
C28 C21 1.403 . S
C28 C29 1.399 . S
C28 H34 0.929 . S
C29 C9 1.449 . S
C29 C28 1.399 . S
C29 H35 0.930 . S
H30 C10 0.931 . S
H31 C11 0.930 . S
H32 C19 0.931 . S
H33 C20 0.929 . S
H34 C28 0.929 . S
H35 C29 0.930 . S
Mn36 O41 2.095 . S
Mn36 O51 2.162 . S
Mn36 O52 2.297 . S
Mn36 O60 2.385 . S
Mn36 O61 2.209 1_455 S
Mn36 O62 2.094 . S
Mn37 O42 2.121 . S
Mn37 N44 2.257 . S
Mn37 N53 2.282 . S
Mn37 O61 2.215 . S
Mn37 O63 2.117 . S
C38 O60 1.234 1_655 S
C38 O61 1.283 . S
C39 O51 1.281 . S
C39 O52 1.236 . S
C40 O62 1.240 . S
C40 O63 1.264 1_455 S
O41 Mn36 2.095 . S
O41 C50 1.250 . S
O42 Mn37 2.121 . S
O42 C50 1.258 1_655 S
C43 N44 1.326 . S
C43 C47 1.460 . S
C43 H49 0.929 . S
N44 Mn37 2.257 . S
N44 C43 1.326 . S
N44 C48 1.362 . S
C45 C46 1.258 . S
C45 C48 1.431 . S
C45 C65 1.449 . S
C46 C45 1.258 . S
C46 C47 1.477 . S
C46 H66 0.931 . S
C47 C43 1.460 . S
C47 C46 1.477 . S
C47 H67 0.930 . S
C48 N44 1.362 . S
C48 C45 1.431 . S
C48 C58 1.476 . S
H49 C43 0.929 . S
C50 O41 1.250 . S
C50 O42 1.258 1_455 S
O51 Mn36 2.162 . S
O51 C39 1.281 . S
O52 Mn36 2.297 . S
O52 C39 1.236 . S
N53 Mn37 2.282 . S
N53 C54 1.328 . S
N53 C58 1.318 . S
C54 N53 1.328 . S
C54 C55 1.457 . S
C54 H59 0.929 . S
C55 C54 1.457 . S
C55 C56 1.291 . S
C55 H68 0.931 . S
C56 C55 1.291 . S
C56 C57 1.373 . S
C56 H69 0.929 . S
C57 C56 1.373 . S
C57 C58 1.396 . S
C57 C64 1.403 . S
C58 C48 1.476 . S
C58 N53 1.318 . S
C58 C57 1.396 . S
H59 C54 0.929 . S
O60 Mn36 2.385 . S
O60 C38 1.234 1_455 S
O61 Mn36 2.209 1_655 S
O61 Mn37 2.215 . S
O61 C38 1.283 . S
O62 Mn36 2.094 . S
O62 C40 1.240 . S
O63 Mn37 2.117 . S
O63 C40 1.264 1_655 S
C64 C57 1.403 . S
C64 C65 1.399 . S
C64 H70 0.929 . S
C65 C45 1.449 . S
C65 C64 1.399 . S
C65 H71 0.930 . S
H66 C46 0.931 . S
H67 C47 0.930 . S
H68 C55 0.931 . S
H69 C56 0.929 . S
H70 C64 0.929 . S
H71 C65 0.930 . S
Mn72 O77 2.095 . S
Mn72 O87 2.162 . S
Mn72 O88 2.297 . S
Mn72 O96 2.385 . S
Mn72 O97 2.209 1_545 S
Mn72 O98 2.094 . S
Mn73 O78 2.121 . S
Mn73 N80 2.257 . S
Mn73 N89 2.282 . S
Mn73 O97 2.215 . S
Mn73 O99 2.117 . S
C74 O96 1.234 1_565 S
C74 O97 1.283 . S
C75 O87 1.281 . S
C75 O88 1.236 . S
C76 O98 1.240 . S
C76 O99 1.264 1_545 S
O77 Mn72 2.095 . S
O77 C86 1.250 . S
O78 Mn73 2.121 . S
O78 C86 1.258 1_565 S
C79 N80 1.326 . S
C79 C83 1.460 . S
C79 H85 0.929 . S
N80 Mn73 2.257 . S
N80 C79 1.326 . S
N80 C84 1.362 . S
C81 C82 1.258 . S
C81 C84 1.431 . S
C81 C101 1.449 . S
C82 C81 1.258 . S
C82 C83 1.477 . S
C82 H102 0.931 . S
C83 C79 1.460 . S
C83 C82 1.477 . S
C83 H103 0.930 . S
C84 N80 1.362 . S
C84 C81 1.431 . S
C84 C94 1.476 . S
H85 C79 0.929 . S
C86 O77 1.250 . S
C86 O78 1.258 1_545 S
O87 Mn72 2.162 . S
O87 C75 1.281 . S
O88 Mn72 2.297 . S
O88 C75 1.236 . S
N89 Mn73 2.282 . S
N89 C90 1.328 . S
N89 C94 1.318 . S
C90 N89 1.328 . S
C90 C91 1.457 . S
C90 H95 0.929 . S
C91 C90 1.457 . S
C91 C92 1.291 . S
C91 H104 0.931 . S
C92 C91 1.291 . S
C92 C93 1.373 . S
C92 H105 0.929 . S
C93 C92 1.373 . S
C93 C94 1.396 . S
C93 C100 1.403 . S
C94 C84 1.476 . S
C94 N89 1.318 . S
C94 C93 1.396 . S
H95 C90 0.929 . S
O96 Mn72 2.385 . S
O96 C74 1.234 1_545 S
O97 Mn72 2.209 1_565 S
O97 Mn73 2.215 . S
O97 C74 1.283 . S
O98 Mn72 2.094 . S
O98 C76 1.240 . S
O99 Mn73 2.117 . S
O99 C76 1.264 1_565 S
C100 C93 1.403 . S
C100 C101 1.399 . S
C100 H106 0.929 . S
C101 C81 1.449 . S
C101 C100 1.399 . S
C101 H107 0.930 . S
H102 C82 0.931 . S
H103 C83 0.930 . S
H104 C91 0.931 . S
H105 C92 0.929 . S
H106 C100 0.929 . S
H107 C101 0.930 . S
Mn108 O113 2.095 . S
Mn108 O123 2.162 1_455 S
Mn108 O124 2.297 . S
Mn108 O132 2.385 . S
Mn108 O133 2.209 . S
Mn108 O134 2.094 . S
Mn109 O114 2.121 . S
Mn109 N116 2.257 . S
Mn109 N125 2.282 . S
Mn109 O133 2.215 . S
Mn109 O135 2.117 . S
C110 O132 1.234 . S
C110 O133 1.283 . S
C111 O123 1.281 . S
C111 O124 1.236 1_655 S
C112 O134 1.240 . S
C112 O135 1.264 . S
O113 Mn108 2.095 . S
O113 C122 1.250 . S
O114 Mn109 2.121 . S
O114 C122 1.258 . S
C115 N116 1.326 . S
C115 C119 1.460 . S
C115 H121 0.929 . S
N116 Mn109 2.257 . S
N116 C115 1.326 . S
N116 C120 1.362 . S
C117 C118 1.258 . S
C117 C120 1.431 . S
C117 C137 1.449 . S
C118 C117 1.258 . S
C118 C119 1.477 . S
C118 H138 0.931 . S
C119 C115 1.460 . S
C119 C118 1.477 . S
C119 H139 0.930 . S
C120 N116 1.362 . S
C120 C117 1.431 . S
C120 C130 1.476 . S
H121 C115 0.929 . S
C122 O113 1.250 . S
C122 O114 1.258 . S
O123 Mn108 2.162 1_655 S
O123 C111 1.281 . S
O124 Mn108 2.297 . S
O124 C111 1.236 1_455 S
N125 Mn109 2.282 . S
N125 C126 1.328 . S
N125 C130 1.318 . S
C126 N125 1.328 . S
C126 C127 1.457 . S
C126 H131 0.929 . S
C127 C126 1.457 . S
C127 C128 1.291 . S
C127 H140 0.931 . S
C128 C127 1.291 . S
C128 C129 1.373 . S
C128 H141 0.929 . S
C129 C128 1.373 . S
C129 C130 1.396 . S
C129 C136 1.403 . S
C130 C120 1.476 . S
C130 N125 1.318 . S
C130 C129 1.396 . S
H131 C126 0.929 . S
O132 Mn108 2.385 . S
O132 C110 1.234 . S
O133 Mn108 2.209 . S
O133 Mn109 2.215 . S
O133 C110 1.283 . S
O134 Mn108 2.094 . S
O134 C112 1.240 . S
O135 Mn109 2.117 . S
O135 C112 1.264 . S
C136 C129 1.403 . S
C136 C137 1.399 . S
C136 H142 0.929 . S
C137 C117 1.449 . S
C137 C136 1.399 . S
C137 H143 0.930 . S
H138 C118 0.931 . S
H139 C119 0.930 . S
H140 C127 0.931 . S
H141 C128 0.929 . S
H142 C136 0.929 . S
H143 C137 0.930 . S
Mn144 O149 2.095 . S
Mn144 O159 2.162 . S
Mn144 O160 2.297 . S
Mn144 O168 2.385 . S
Mn144 O169 2.209 1_545 S
Mn144 O170 2.094 . S
Mn145 O150 2.121 . S
Mn145 N152 2.257 . S
Mn145 N161 2.282 . S
Mn145 O169 2.215 . S
Mn145 O171 2.117 . S
C146 O168 1.234 1_565 S
C146 O169 1.283 . S
C147 O159 1.281 . S
C147 O160 1.236 . S
C148 O170 1.240 . S
C148 O171 1.264 1_545 S
O149 Mn144 2.095 . S
O149 C158 1.250 . S
O150 Mn145 2.121 . S
O150 C158 1.258 1_565 S
C151 N152 1.326 . S
C151 C155 1.460 . S
C151 H157 0.929 . S
N152 Mn145 2.257 . S
N152 C151 1.326 . S
N152 C156 1.362 . S
C153 C154 1.258 . S
C153 C156 1.431 . S
C153 C173 1.449 . S
C154 C153 1.258 . S
C154 C155 1.477 . S
C154 H174 0.931 . S
C155 C151 1.460 . S
C155 C154 1.477 . S
C155 H175 0.930 . S
C156 N152 1.362 . S
C156 C153 1.431 . S
C156 C166 1.476 . S
H157 C151 0.929 . S
C158 O149 1.250 . S
C158 O150 1.258 1_545 S
O159 Mn144 2.162 . S
O159 C147 1.281 . S
O160 Mn144 2.297 . S
O160 C147 1.236 . S
N161 Mn145 2.282 . S
N161 C162 1.328 . S
N161 C166 1.318 . S
C162 N161 1.328 . S
C162 C163 1.457 . S
C162 H167 0.929 . S
C163 C162 1.457 . S
C163 C164 1.291 . S
C163 H176 0.931 . S
C164 C163 1.291 . S
C164 C165 1.373 . S
C164 H177 0.929 . S
C165 C164 1.373 . S
C165 C166 1.396 . S
C165 C172 1.403 . S
C166 C156 1.476 . S
C166 N161 1.318 . S
C166 C165 1.396 . S
H167 C162 0.929 . S
O168 Mn144 2.385 . S
O168 C146 1.234 1_545 S
O169 Mn144 2.209 1_565 S
O169 Mn145 2.215 . S
O169 C146 1.283 . S
O170 Mn144 2.094 . S
O170 C148 1.240 . S
O171 Mn145 2.117 . S
O171 C148 1.264 1_565 S
C172 C165 1.403 . S
C172 C173 1.399 . S
C172 H178 0.929 . S
C173 C153 1.449 . S
C173 C172 1.399 . S
C173 H179 0.930 . S
H174 C154 0.931 . S
H175 C155 0.930 . S
H176 C163 0.931 . S
H177 C164 0.929 . S
H178 C172 0.929 . S
H179 C173 0.930 . S
Mn180 O185 2.095 . S
Mn180 O195 2.162 1_455 S
Mn180 O196 2.297 . S
Mn180 O204 2.385 . S
Mn180 O205 2.209 . S
Mn180 O206 2.094 . S
Mn181 O186 2.121 . S
Mn181 N188 2.257 . S
Mn181 N197 2.282 . S
Mn181 O205 2.215 . S
Mn181 O207 2.117 . S
C182 O204 1.234 . S
C182 O205 1.283 . S
C183 O195 1.281 . S
C183 O196 1.236 1_655 S
C184 O206 1.240 . S
C184 O207 1.264 . S
O185 Mn180 2.095 . S
O185 C194 1.250 . S
O186 Mn181 2.121 . S
O186 C194 1.258 . S
C187 N188 1.326 . S
C187 C191 1.460 . S
C187 H193 0.929 . S
N188 Mn181 2.257 . S
N188 C187 1.326 . S
N188 C192 1.362 . S
C189 C190 1.258 . S
C189 C192 1.431 . S
C189 C209 1.449 . S
C190 C189 1.258 . S
C190 C191 1.477 . S
C190 H210 0.931 . S
C191 C187 1.460 . S
C191 C190 1.477 . S
C191 H211 0.930 . S
C192 N188 1.362 . S
C192 C189 1.431 . S
C192 C202 1.476 . S
H193 C187 0.929 . S
C194 O185 1.250 . S
C194 O186 1.258 . S
O195 Mn180 2.162 1_655 S
O195 C183 1.281 . S
O196 Mn180 2.297 . S
O196 C183 1.236 1_455 S
N197 Mn181 2.282 . S
N197 C198 1.328 . S
N197 C202 1.318 . S
C198 N197 1.328 . S
C198 C199 1.457 . S
C198 H203 0.929 . S
C199 C198 1.457 . S
C199 C200 1.291 . S
C199 H212 0.931 . S
C200 C199 1.291 . S
C200 C201 1.373 . S
C200 H213 0.929 . S
C201 C200 1.373 . S
C201 C202 1.396 . S
C201 C208 1.403 . S
C202 C192 1.476 . S
C202 N197 1.318 . S
C202 C201 1.396 . S
H203 C198 0.929 . S
O204 Mn180 2.385 . S
O204 C182 1.234 . S
O205 Mn180 2.209 . S
O205 Mn181 2.215 . S
O205 C182 1.283 . S
O206 Mn180 2.094 . S
O206 C184 1.240 . S
O207 Mn181 2.117 . S
O207 C184 1.264 . S
C208 C201 1.403 . S
C208 C209 1.399 . S
C208 H214 0.929 . S
C209 C189 1.449 . S
C209 C208 1.399 . S
C209 H215 0.930 . S
H210 C190 0.931 . S
H211 C191 0.930 . S
H212 C199 0.931 . S
H213 C200 0.929 . S
H214 C208 0.929 . S
H215 C209 0.930 . S
Mn216 O221 2.095 . S
Mn216 O231 2.162 1_545 S
Mn216 O232 2.297 . S
Mn216 O240 2.385 . S
Mn216 O241 2.209 . S
Mn216 O242 2.094 . S
Mn217 O222 2.121 . S
Mn217 N224 2.257 . S
Mn217 N233 2.282 . S
Mn217 O241 2.215 . S
Mn217 O243 2.117 . S
C218 O240 1.234 . S
C218 O241 1.283 . S
C219 O231 1.281 . S
C219 O232 1.236 1_565 S
C220 O242 1.240 . S
C220 O243 1.264 . S
O221 Mn216 2.095 . S
O221 C230 1.250 . S
O222 Mn217 2.121 . S
O222 C230 1.258 . S
C223 N224 1.326 . S
C223 C227 1.460 . S
C223 H229 0.929 . S
N224 Mn217 2.257 . S
N224 C223 1.326 . S
N224 C228 1.362 . S
C225 C226 1.258 . S
C225 C228 1.431 . S
C225 C245 1.449 . S
C226 C225 1.258 . S
C226 C227 1.477 . S
C226 H246 0.931 . S
C227 C223 1.460 . S
C227 C226 1.477 . S
C227 H247 0.930 . S
C228 N224 1.362 . S
C228 C225 1.431 . S
C228 C238 1.476 . S
H229 C223 0.929 . S
C230 O221 1.250 . S
C230 O222 1.258 . S
O231 Mn216 2.162 1_565 S
O231 C219 1.281 . S
O232 Mn216 2.297 . S
O232 C219 1.236 1_545 S
N233 Mn217 2.282 . S
N233 C234 1.328 . S
N233 C238 1.318 . S
C234 N233 1.328 . S
C234 C235 1.457 . S
C234 H239 0.929 . S
C235 C234 1.457 . S
C235 C236 1.291 . S
C235 H248 0.931 . S
C236 C235 1.291 . S
C236 C237 1.373 . S
C236 H249 0.929 . S
C237 C236 1.373 . S
C237 C238 1.396 . S
C237 C244 1.403 . S
C238 C228 1.476 . S
C238 N233 1.318 . S
C238 C237 1.396 . S
H239 C234 0.929 . S
O240 Mn216 2.385 . S
O240 C218 1.234 . S
O241 Mn216 2.209 . S
O241 Mn217 2.215 . S
O241 C218 1.283 . S
O242 Mn216 2.094 . S
O242 C220 1.240 . S
O243 Mn217 2.117 . S
O243 C220 1.264 . S
C244 C237 1.403 . S
C244 C245 1.399 . S
C244 H250 0.929 . S
C245 C225 1.449 . S
C245 C244 1.399 . S
C245 H251 0.930 . S
H246 C226 0.931 . S
H247 C227 0.930 . S
H248 C235 0.931 . S
H249 C236 0.929 . S
H250 C244 0.929 . S
H251 C245 0.930 . S
Mn252 O257 2.095 . S
Mn252 O267 2.162 . S
Mn252 O268 2.297 . S
Mn252 O276 2.385 . S
Mn252 O277 2.209 1_455 S
Mn252 O278 2.094 . S
Mn253 O258 2.121 . S
Mn253 N260 2.257 . S
Mn253 N269 2.282 . S
Mn253 O277 2.215 . S
Mn253 O279 2.117 . S
C254 O276 1.234 1_655 S
C254 O277 1.283 . S
C255 O267 1.281 . S
C255 O268 1.236 . S
C256 O278 1.240 . S
C256 O279 1.264 1_455 S
O257 Mn252 2.095 . S
O257 C266 1.250 . S
O258 Mn253 2.121 . S
O258 C266 1.258 1_655 S
C259 N260 1.326 . S
C259 C263 1.460 . S
C259 H265 0.929 . S
N260 Mn253 2.257 . S
N260 C259 1.326 . S
N260 C264 1.362 . S
C261 C262 1.258 . S
C261 C264 1.431 . S
C261 C281 1.449 . S
C262 C261 1.258 . S
C262 C263 1.477 . S
C262 H282 0.931 . S
C263 C259 1.460 . S
C263 C262 1.477 . S
C263 H283 0.930 . S
C264 N260 1.362 . S
C264 C261 1.431 . S
C264 C274 1.476 . S
H265 C259 0.929 . S
C266 O257 1.250 . S
C266 O258 1.258 1_455 S
O267 Mn252 2.162 . S
O267 C255 1.281 . S
O268 Mn252 2.297 . S
O268 C255 1.236 . S
N269 Mn253 2.282 . S
N269 C270 1.328 . S
N269 C274 1.318 . S
C270 N269 1.328 . S
C270 C271 1.457 . S
C270 H275 0.929 . S
C271 C270 1.457 . S
C271 C272 1.291 . S
C271 H284 0.931 . S
C272 C271 1.291 . S
C272 C273 1.373 . S
C272 H285 0.929 . S
C273 C272 1.373 . S
C273 C274 1.396 . S
C273 C280 1.403 . S
C274 C264 1.476 . S
C274 N269 1.318 . S
C274 C273 1.396 . S
H275 C270 0.929 . S
O276 Mn252 2.385 . S
O276 C254 1.234 1_455 S
O277 Mn252 2.209 1_655 S
O277 Mn253 2.215 . S
O277 C254 1.283 . S
O278 Mn252 2.094 . S
O278 C256 1.240 . S
O279 Mn253 2.117 . S
O279 C256 1.264 1_655 S
C280 C273 1.403 . S
C280 C281 1.399 . S
C280 H286 0.929 . S
C281 C261 1.449 . S
C281 C280 1.399 . S
C281 H287 0.930 . S
H282 C262 0.931 . S
H283 C263 0.930 . S
H284 C271 0.931 . S
H285 C272 0.929 . S
H286 C280 0.929 . S
H287 C281 0.930 . S
C288 C289 1.387 . S
C288 H292 0.950 . S
C288 C297 1.390 1_554 S
C289 C288 1.387 . S
C289 C291 1.387 . S
H290 C297 0.950 . S
C291 C289 1.387 . S
C291 C293 1.390 1_554 S
C291 H295 0.950 . S
H292 C288 0.950 . S
C293 C291 1.390 1_556 S
C293 C294 1.387 . S
C293 H296 0.950 . S
C294 C293 1.387 . S
C294 C297 1.387 . S
H295 C291 0.950 . S
H296 C293 0.950 . S
C297 C288 1.390 1_556 S
C297 H290 0.950 . S
C297 C294 1.387 . S
C298 C299 1.387 . S
C298 H302 0.950 . S
C298 C307 1.390 . S
C299 C298 1.387 . S
C299 C301 1.387 . S
H300 C307 0.950 . S
C301 C299 1.387 . S
C301 C303 1.390 . S
C301 H305 0.950 . S
H302 C298 0.950 . S
C303 C301 1.390 . S
C303 C304 1.387 . S
C303 H306 0.950 . S
C304 C303 1.387 . S
C304 C307 1.387 . S
H305 C301 0.950 . S
H306 C303 0.950 . S
C307 C298 1.390 . S
C307 H300 0.950 . S
C307 C304 1.387 . S
C308 C309 1.387 . S
C308 H312 0.950 . S
C308 C317 1.390 1_556 S
C309 C308 1.387 . S
C309 C311 1.387 . S
H310 C317 0.950 . S
C311 C309 1.387 . S
C311 C313 1.390 1_556 S
C311 H315 0.950 . S
H312 C308 0.950 . S
C313 C311 1.390 1_554 S
C313 C314 1.387 . S
C313 H316 0.950 . S
C314 C313 1.387 . S
C314 C317 1.387 . S
H315 C311 0.950 . S
H316 C313 0.950 . S
C317 C308 1.390 1_554 S
C317 H310 0.950 . S
C317 C314 1.387 . S
C318 C319 1.387 . S
C318 H322 0.950 . S
C318 C327 1.390 . S
C319 C318 1.387 . S
C319 C321 1.387 . S
H320 C327 0.950 . S
C321 C319 1.387 . S
C321 C323 1.390 . S
C321 H325 0.950 . S
H322 C318 0.950 . S
C323 C321 1.390 . S
C323 C324 1.387 . S
C323 H326 0.950 . S
C324 C323 1.387 . S
C324 C327 1.387 . S
H325 C321 0.950 . S
H326 C323 0.950 . S
C327 C318 1.390 . S
C327 H320 0.950 . S
C327 C324 1.387 . S
C328 C329 1.387 . S
C328 H332 0.950 . S
C328 C337 1.390 . S
C329 C328 1.387 . S
C329 C331 1.387 . S
H330 C337 0.950 . S
C331 C329 1.387 . S
C331 C333 1.390 . S
C331 H335 0.950 . S
H332 C328 0.950 . S
C333 C331 1.390 . S
C333 C334 1.387 . S
C333 H336 0.950 . S
C334 C333 1.387 . S
C334 C337 1.387 . S
H335 C331 0.950 . S
H336 C333 0.950 . S
C337 C328 1.390 . S
C337 H330 0.950 . S
C337 C334 1.387 . S
C338 C339 1.387 . S
C338 H342 0.950 . S
C338 C347 1.390 . S
C339 C338 1.387 . S
C339 C341 1.387 . S
H340 C347 0.950 . S
C341 C339 1.387 . S
C341 C343 1.390 . S
C341 H345 0.950 . S
H342 C338 0.950 . S
C343 C341 1.390 . S
C343 C344 1.387 . S
C343 H346 0.950 . S
C344 C343 1.387 . S
C344 C347 1.387 . S
H345 C341 0.950 . S
H346 C343 0.950 . S
C347 C338 1.390 . S
C347 H340 0.950 . S
C347 C344 1.387 . S
C348 C349 1.387 . S
C348 H352 0.950 . S
C348 C357 1.390 . S
C349 C348 1.387 . S
C349 C351 1.387 . S
H350 C357 0.950 . S
C351 C349 1.387 . S
C351 C353 1.390 . S
C351 H355 0.950 . S
H352 C348 0.950 . S
C353 C351 1.390 . S
C353 C354 1.387 . S
C353 H356 0.950 . S
C354 C353 1.387 . S
C354 C357 1.387 . S
H355 C351 0.950 . S
H356 C353 0.950 . S
C357 C348 1.390 . S
C357 H350 0.950 . S
C357 C354 1.387 . S
C358 C359 1.387 . S
C358 H362 0.950 . S
C358 C367 1.390 . S
C359 C358 1.387 . S
C359 C361 1.387 . S
H360 C367 0.950 . S
C361 C359 1.387 . S
C361 C363 1.390 . S
C361 H365 0.950 . S
H362 C358 0.950 . S
C363 C361 1.390 . S
C363 C364 1.387 . S
C363 H366 0.950 . S
C364 C363 1.387 . S
C364 C367 1.387 . S
H365 C361 0.950 . S
H366 C363 0.950 . S
C367 C358 1.390 . S
C367 H360 0.950 . S
C367 C364 1.387 . S
C368 C369 1.387 . S
C368 H372 0.950 . S
C368 C377 1.390 . S
C369 C368 1.387 . S
C369 C371 1.387 . S
H370 C377 0.950 . S
C371 C369 1.387 . S
C371 C373 1.390 . S
C371 H375 0.950 . S
H372 C368 0.950 . S
C373 C371 1.390 . S
C373 C374 1.387 . S
C373 H376 0.950 . S
C374 C373 1.387 . S
C374 C377 1.387 . S
H375 C371 0.950 . S
H376 C373 0.950 . S
C377 C368 1.390 . S
C377 H370 0.950 . S
C377 C374 1.387 . S
C378 C379 1.387 . S
C378 H382 0.950 . S
C378 C387 1.390 . S
C379 C378 1.387 . S
C379 C381 1.387 . S
H380 C387 0.950 . S
C381 C379 1.387 . S
C381 C383 1.390 . S
C381 H385 0.950 . S
H382 C378 0.950 . S
C383 C381 1.390 . S
C383 C384 1.387 . S
C383 H386 0.950 . S
C384 C383 1.387 . S
C384 C387 1.387 . S
H385 C381 0.950 . S
H386 C383 0.950 . S
C387 C378 1.390 . S
C387 H380 0.950 . S
C387 C384 1.387 . S
C388 C389 1.387 . S
C388 H392 0.950 . S
C388 C397 1.390 . S
C389 C388 1.387 . S
C389 C391 1.387 . S
H390 C397 0.950 . S
C391 C389 1.387 . S
C391 C393 1.390 . S
C391 H395 0.950 . S
H392 C388 0.950 . S
C393 C391 1.390 . S
C393 C394 1.387 . S
C393 H396 0.950 . S
C394 C393 1.387 . S
C394 C397 1.387 . S
H395 C391 0.950 . S
H396 C393 0.950 . S
C397 C388 1.390 . S
C397 H390 0.950 . S
C397 C394 1.387 . S
C398 C399 1.387 . S
C398 H402 0.950 . S
C398 C407 1.390 . S
C399 C398 1.387 . S
C399 C401 1.387 . S
H400 C407 0.950 . S
C401 C399 1.387 . S
C401 C403 1.390 . S
C401 H405 0.950 . S
H402 C398 0.950 . S
C403 C401 1.390 . S
C403 C404 1.387 . S
C403 H406 0.950 . S
C404 C403 1.387 . S
C404 C407 1.387 . S
H405 C401 0.950 . S
H406 C403 0.950 . S
C407 C398 1.390 . S
C407 H400 0.950 . S
C407 C404 1.387 . S
C408 C409 1.387 . S
C408 H412 0.950 1_565 S
C408 C417 1.390 . S
C409 C408 1.387 . S
C409 C411 1.387 . S
H410 C417 0.950 . S
C411 C409 1.387 . S
C411 C413 1.390 . S
C411 H415 0.950 . S
H412 C408 0.950 1_545 S
C413 C411 1.390 . S
C413 C414 1.387 . S
C413 H416 0.950 . S
C414 C413 1.387 . S
C414 C417 1.387 . S
H415 C411 0.950 . S
H416 C413 0.950 . S
C417 C408 1.390 . S
C417 H410 0.950 . S
C417 C414 1.387 . S
C418 C419 1.387 . S
C418 H422 0.950 1_565 S
C418 C427 1.390 . S
C419 C418 1.387 . S
C419 C421 1.387 . S
H420 C427 0.950 . S
C421 C419 1.387 . S
C421 C423 1.390 . S
C421 H425 0.950 . S
H422 C418 0.950 1_545 S
C423 C421 1.390 . S
C423 C424 1.387 . S
C423 H426 0.950 . S
C424 C423 1.387 . S
C424 C427 1.387 . S
H425 C421 0.950 . S
H426 C423 0.950 . S
C427 C418 1.390 . S
C427 H420 0.950 . S
C427 C424 1.387 . S
C428 C429 1.387 . S
C428 H432 0.950 . S
C428 C437 1.390 . S
C429 C428 1.387 . S
C429 C431 1.387 . S
H430 C437 0.950 . S
C431 C429 1.387 . S
C431 C433 1.390 . S
C431 H435 0.950 . S
H432 C428 0.950 . S
C433 C431 1.390 . S
C433 C434 1.387 . S
C433 H436 0.950 . S
C434 C433 1.387 . S
C434 C437 1.387 . S
H435 C431 0.950 . S
H436 C433 0.950 . S
C437 C428 1.390 . S
C437 H430 0.950 . S
C437 C434 1.387 . S
C438 C439 1.387 . S
C438 H442 0.950 . S
C438 C447 1.390 . S
C439 C438 1.387 . S
C439 C441 1.387 . S
H440 C447 0.950 . S
C441 C439 1.387 . S
C441 C443 1.390 . S
C441 H445 0.950 . S
H442 C438 0.950 . S
C443 C441 1.390 . S
C443 C444 1.387 . S
C443 H446 0.950 . S
C444 C443 1.387 . S
C444 C447 1.387 . S
H445 C441 0.950 . S
H446 C443 0.950 . S
C447 C438 1.390 . S
C447 H440 0.950 . S
C447 C444 1.387 . S
C289 C14 1.486 . S
C294 C158 1.486 . S
C299 C50 1.486 . S
C304 C194 1.486 . S
C309 C230 1.489 . S
C314 C86 1.489 . S
C319 C266 1.489 . S
C324 C122 1.489 . S
C329 C4 1.443 . S
C334 C76 1.443 . S
C339 C40 1.441 . S
C344 C112 1.441 . S
C349 C220 1.441 . S
C354 C148 1.441 . S
C359 C184 1.441 . S
C364 C256 1.441 . S
C369 C182 1.402 . S
C374 C2 1.404 . S
C379 C38 1.402 . S
C384 C218 1.404 . S
C389 C254 1.404 . S
C394 C74 1.402 . S
C399 C110 1.402 . S
C404 C146 1.404 . S
C409 C219 1.358 . S
C414 C111 1.358 . S
C419 C3 1.358 . S
C424 C255 1.358 . S
C429 C39 1.358 . S
C434 C147 1.358 . S
C439 C183 1.358 . S
C444 C75 1.358 . S
