# Generated by pormake.
# Topology dft, (4)-cn, num edge types: 1
# Building blocks:
#     Node 0, Type 0, BuildingBlock: GALJAG_clean_sbu_0, # of connection points: 4
#     Node 1, Type 0, BuildingBlock: GALJAG_clean_sbu_0, # of connection points: 4
#     Node 2, Type 0, BuildingBlock: GALJAG_clean_sbu_0, # of connection points: 4
#     Node 3, Type 0, BuildingBlock: GALJAG_clean_sbu_0, # of connection points: 4
#     Node 4, Type 0, BuildingBlock: GALJAG_clean_sbu_0, # of connection points: 4
#     Node 5, Type 0, BuildingBlock: GALJAG_clean_sbu_0, # of connection points: 4
#     Node 6, Type 0, BuildingBlock: GALJAG_clean_sbu_0, # of connection points: 4
#     Node 7, Type 0, BuildingBlock: GALJAG_clean_sbu_0, # of connection points: 4
#     Edge 8, Type (0, 0), BuildingBlock: EZIPEK_clean_linker_0, # of connection points: 2
#     Edge 9, Type (0, 0), BuildingBlock: EZIPEK_clean_linker_0, # of connection points: 2
#     Edge 10, Type (0, 0), BuildingBlock: EZIPEK_clean_linker_0, # of connection points: 2
#     Edge 11, Type (0, 0), BuildingBlock: EZIPEK_clean_linker_0, # of connection points: 2
#     Edge 12, Type (0, 0), BuildingBlock: EZIPEK_clean_linker_0, # of connection points: 2
#     Edge 13, Type (0, 0), BuildingBlock: EZIPEK_clean_linker_0, # of connection points: 2
#     Edge 14, Type (0, 0), BuildingBlock: EZIPEK_clean_linker_0, # of connection points: 2
#     Edge 15, Type (0, 0), BuildingBlock: EZIPEK_clean_linker_0, # of connection points: 2
#     Edge 16, Type (0, 0), BuildingBlock: EZIPEK_clean_linker_0, # of connection points: 2
#     Edge 17, Type (0, 0), BuildingBlock: EZIPEK_clean_linker_0, # of connection points: 2
#     Edge 18, Type (0, 0), BuildingBlock: EZIPEK_clean_linker_0, # of connection points: 2
#     Edge 19, Type (0, 0), BuildingBlock: EZIPEK_clean_linker_0, # of connection points: 2
#     Edge 20, Type (0, 0), BuildingBlock: EZIPEK_clean_linker_0, # of connection points: 2
#     Edge 21, Type (0, 0), BuildingBlock: EZIPEK_clean_linker_0, # of connection points: 2
#     Edge 22, Type (0, 0), BuildingBlock: EZIPEK_clean_linker_0, # of connection points: 2
#     Edge 23, Type (0, 0), BuildingBlock: EZIPEK_clean_linker_0, # of connection points: 2
# Relax obj value: 0.096
# Max RMSD: 0.146
# Mean RMSD: 0.146
data_MOF--net-dft--node1-GALJAG_clean_sbu_0--edge1-EZIPEK_clean_linker_0
_symmetry_space_group_name_H-M    P1
_symmetry_Int_Tables_number       1
_symmetry_cell_setting            triclinic
loop_
_symmetry_equiv_pos_as_xyz
'x, y, z'
_cell_length_a     24.697584
_cell_length_b     24.729991
_cell_length_c     33.07219
_cell_angle_alpha  89.917061
_cell_angle_beta   89.862928
_cell_angle_gamma 89.900184
loop_
_atom_site_label
_atom_site_type_symbol
_atom_site_fract_x
_atom_site_fract_y
_atom_site_fract_z
_atom_type_partial_charge
In0 In 0.31221 0.04172 0.16898 0.0
O1 O 0.39446 0.08094 0.17892 0.0
O2 O 0.39174 -0.00474 0.17348 0.0
C3 C 0.25479 0.12127 0.20445 0.0
C4 C 0.29924 0.05036 0.08825 0.0
C5 C 0.27126 0.9543 0.20678 0.0
O6 O 0.30329 0.11115 0.2137 0.0
O7 O 0.23594 0.09275 0.17617 0.0
O8 O 0.2882 0.95276 0.17079 0.0
O9 O 0.27764 -0.00101 0.22439 0.0
C10 C 0.42029 0.03701 0.17781 0.0
O11 O 0.2718 0.01819 0.10951 0.0
O12 O 0.33185 0.07952 0.10758 0.0
In13 In 0.03651 0.31678 0.66644 0.0
O14 O -0.00222 0.40032 0.66628 0.0
O15 O 0.08234 0.39526 0.67813 0.0
C16 C 0.95534 0.26311 0.70331 0.0
C17 C 0.03454 0.30992 0.58533 0.0
C18 C 0.11686 0.26368 0.7042 0.0
O19 O 0.96583 0.31191 0.71106 0.0
O20 O 0.98426 0.2423 0.67599 0.0
O21 O 0.10525 0.25576 0.66755 0.0
O22 O 0.08921 0.29978 0.72165 0.0
C23 C 0.04128 0.42497 0.67348 0.0
O24 O 0.0781 0.31282 0.60494 0.0
O25 O 0.99191 0.30996 0.60636 0.0
In26 In 0.76145 0.02892 0.16498 0.0
O27 O 0.68007 0.98947 0.17728 0.0
O28 O 0.68124 0.07448 0.16652 0.0
C29 C 0.82081 0.94838 0.19715 0.0
C30 C 0.76776 0.02755 0.08366 0.0
C31 C 0.80608 0.10755 0.20962 0.0
O32 O 0.77013 0.9511 0.20148 0.0
O33 O 0.84113 0.98481 0.17518 0.0
O34 O 0.81979 0.09871 0.17349 0.0
O35 O 0.7687 0.07785 0.22318 0.0
C36 C 0.65354 0.03279 0.17381 0.0
O37 O 0.77099 0.07049 0.10391 0.0
O38 O 0.76215 0.98499 0.10422 0.0
In39 In 0.04649 0.76638 0.66362 0.0
O40 O 0.0043 0.77165 0.60271 0.0
O41 O 0.09042 0.76912 0.60279 0.0
C42 C 0.9654 0.81978 0.70046 0.0
C43 C 0.04557 0.65824 0.6708 0.0
C44 C 0.1256 0.81947 0.70281 0.0
O45 O 0.9849 0.83439 0.66693 0.0
O46 O 0.98535 0.77698 0.71502 0.0
O47 O 0.10994 0.77303 0.71335 0.0
O48 O 0.10331 0.83794 0.67144 0.0
C49 C 0.04747 0.77121 0.58227 0.0
O50 O 0.0888 0.68489 0.66713 0.0
O51 O 0.00265 0.68601 0.67156 0.0
In52 In 0.31322 0.04471 0.8325 0.0
O53 O 0.31974 0.08705 0.89356 0.0
O54 O 0.29104 0.00599 0.8929 0.0
C55 C 0.26342 0.12515 0.79222 0.0
C56 C 0.42165 0.0411 0.82612 0.0
C57 C 0.26179 0.9631 0.79489 0.0
O58 O 0.25225 0.11364 0.82841 0.0
O59 O 0.30109 0.09765 0.77663 0.0
O60 O 0.31182 0.97139 0.79049 0.0
O61 O 0.2384 0.99439 0.81942 0.0
C62 C 0.30326 0.04691 0.91364 0.0
O63 O 0.39379 0.00061 0.83633 0.0
O64 O 0.39499 0.08359 0.81878 0.0
In65 In 0.02511 0.31115 0.32967 0.0
O66 O 0.06166 0.39523 0.32961 0.0
O67 O 0.97879 0.38799 0.31281 0.0
C68 C 0.10674 0.25986 0.29145 0.0
C69 C 0.02984 0.30777 0.41092 0.0
C70 C 0.94462 0.25332 0.29668 0.0
O71 O 0.09433 0.30826 0.28371 0.0
O72 O 0.07948 0.23822 0.31937 0.0
O73 O 0.95743 0.24914 0.33346 0.0
O74 O 0.97082 0.28821 0.27685 0.0
C75 C 0.01864 0.41867 0.31903 0.0
O76 O 0.98606 0.31462 0.39204 0.0
O77 O 0.07133 0.30224 0.38899 0.0
In78 In 0.76335 0.03575 0.82795 0.0
O79 O 0.76676 0.99051 0.888 0.0
O80 O 0.76848 0.07658 0.88956 0.0
C81 C 0.81905 0.95801 0.78915 0.0
C82 C 0.6551 0.03405 0.82167 0.0
C83 C 0.81356 0.11845 0.79034 0.0
O84 O 0.83452 0.97825 0.8221 0.0
O85 O 0.77444 0.97564 0.77601 0.0
O86 O 0.76687 0.10282 0.78038 0.0
O87 O 0.83367 0.09402 0.82023 0.0
C88 C 0.76855 0.03282 0.90916 0.0
O89 O 0.68132 0.07725 0.82651 0.0
O90 O 0.6833 0.99156 0.81906 0.0
In91 In 0.04634 0.7582 0.32592 0.0
O92 O 0.08677 0.75032 0.38785 0.0
O93 O 0.00629 0.78049 0.38591 0.0
C94 C 0.1323 0.80462 0.28927 0.0
C95 C 0.0315 0.6509 0.32003 0.0
C96 C 0.96951 0.80967 0.2828 0.0
O97 O 0.10453 0.82834 0.31587 0.0
O98 O 0.11854 0.7565 0.28243 0.0
O99 O 0.98835 0.76437 0.27222 0.0
O100 O 0.98864 0.82826 0.31522 0.0
C101 C 0.04624 0.76722 0.40733 0.0
O102 O 0.99253 0.68349 0.32439 0.0
O103 O 0.0778 0.67232 0.31847 0.0
C104 C 0.32554 0.00614 0.02334 0.0
C105 C 0.29853 0.04892 0.04365 0.0
C106 C 0.26979 0.08714 0.97875 0.0
C107 C 0.30075 0.04706 0.95838 0.0
N108 N 0.3657 0.97396 0.96101 0.0
N109 N 0.25036 0.13365 0.04177 0.0
C110 C 0.33042 0.00777 0.98056 0.0
C111 C 0.27237 0.09061 0.02165 0.0
N112 N 0.34663 0.96386 0.04494 0.0
N113 N 0.23598 0.1202 0.95724 0.0
H114 H 0.24945 0.13629 0.07326 0.0
H115 H 0.23624 0.16836 0.02737 0.0
H116 H 0.23201 0.11804 0.9259 0.0
H117 H 0.20824 0.14645 0.97059 0.0
H118 H 0.36074 0.92836 0.03166 0.0
H119 H 0.34672 0.96237 0.07646 0.0
H120 H 0.39327 0.94909 0.97591 0.0
H121 H 0.37115 0.97395 0.92976 0.0
C122 C 0.04481 0.26045 0.51991 0.0
C123 C 0.03351 0.30924 0.54076 0.0
C124 C 0.01945 0.35691 0.47659 0.0
C125 C 0.03245 0.30848 0.45558 0.0
N126 N 0.06273 0.21567 0.45594 0.0
N127 N 0.01603 0.40511 0.54053 0.0
C128 C 0.04693 0.26071 0.47689 0.0
C129 C 0.02217 0.3578 0.51953 0.0
N130 N 0.05146 0.21354 0.54136 0.0
N131 N 0.00473 0.40209 0.45533 0.0
H132 H 0.01643 0.40703 0.57204 0.0
H133 H 0.01369 0.4431 0.52713 0.0
H134 H 0.00743 0.4047 0.42394 0.0
H135 H 0.98805 0.43657 0.46838 0.0
H136 H 0.05411 0.1754 0.52829 0.0
H137 H 0.05082 0.21213 0.57289 0.0
H138 H 0.07984 0.18163 0.46934 0.0
H139 H 0.06148 0.21306 0.42449 0.0
C140 C 0.81328 0.00873 0.97461 0.0
C141 C 0.7684 0.03123 0.9538 0.0
C142 C 0.72379 0.05245 0.01818 0.0
C143 C 0.76755 0.02764 0.03899 0.0
N144 N 0.85088 0.97659 0.03802 0.0
N145 N 0.67761 0.06729 0.95444 0.0
C146 C 0.81128 0.00383 0.01747 0.0
C147 C 0.72282 0.05143 0.97521 0.0
N148 N 0.85883 0.9945 0.9535 0.0
N149 N 0.68306 0.07691 0.03956 0.0
H150 H 0.67548 0.06781 0.92297 0.0
H151 H 0.64067 0.07623 0.96809 0.0
H152 H 0.67963 0.07466 0.07095 0.0
H153 H 0.65384 0.10173 0.02652 0.0
H154 H 0.89519 0.98339 0.96703 0.0
H155 H 0.86185 -0.00222 0.92212 0.0
H156 H 0.88026 0.95284 0.02404 0.0
H157 H 0.85272 0.97494 0.06949 0.0
C158 C 0.08116 0.80541 0.47258 0.0
C159 C 0.04528 0.77008 0.45205 0.0
C160 C 0.01539 0.73214 0.51679 0.0
C161 C 0.04739 0.77077 0.53748 0.0
N162 N 0.10298 0.85092 0.53534 0.0
N163 N 0.97026 0.70741 0.45482 0.0
C164 C 0.07847 0.80915 0.51549 0.0
C165 C 0.00972 0.73602 0.47421 0.0
N166 N 0.11741 0.83585 0.45112 0.0
N167 N 0.99283 0.68977 0.53743 0.0
H168 H 0.96493 0.70805 0.42363 0.0
H169 H 0.9396 0.68679 0.47004 0.0
H170 H -0.0025 0.68401 0.56845 0.0
H171 H 0.97431 0.65714 0.52321 0.0
H172 H 0.149 0.85708 0.46452 0.0
H173 H 0.11795 0.83756 0.41961 0.0
H174 H 0.12139 0.88332 0.52064 0.0
H175 H 0.1006 0.85614 0.56657 0.0
C176 C 0.50951 0.05371 0.21131 0.0
C177 C 0.47999 0.03525 0.17731 0.0
C178 C 0.56437 0.01214 0.14224 0.0
C179 C 0.59392 0.03386 0.17515 0.0
N180 N 0.59625 0.0812 0.23879 0.0
N181 N 0.47828 0.00648 0.10757 0.0
C182 C 0.56694 0.05661 0.20901 0.0
C183 C 0.50708 0.01673 0.14203 0.0
N184 N 0.4827 0.06631 0.2463 0.0
N185 N 0.59109 0.98726 0.11108 0.0
H186 H 0.43631 0.01036 0.1058 0.0
H187 H 0.4961 -0.00122 0.07961 0.0
H188 H 0.63318 0.98617 0.1086 0.0
H189 H 0.5717 0.96473 0.08886 0.0
H190 H 0.50203 0.0746 0.27352 0.0
H191 H 0.44066 0.06431 0.24909 0.0
H192 H 0.57892 0.10395 0.26191 0.0
H193 H 0.63848 0.08184 0.23906 0.0
C194 C 0.01931 0.51397 0.70567 0.0
C195 C 0.04424 0.48457 0.67385 0.0
C196 C 0.06653 0.56904 0.63882 0.0
C197 C 0.04521 0.59853 0.67205 0.0
N198 N 0.00909 0.60017 0.73983 0.0
N199 N 0.09761 0.48299 0.61256 0.0
C200 C 0.02346 0.57133 0.7062 0.0
C201 C 0.06998 0.5118 0.64127 0.0
N202 N 0.99152 0.48705 0.73529 0.0
N203 N 0.08064 0.59552 0.604 0.0
H204 H 0.09871 0.44087 0.61182 0.0
H205 H 0.1226 0.50077 0.59093 0.0
H206 H 0.07813 0.63737 0.60065 0.0
H207 H 0.09031 0.5759 0.5771 0.0
H208 H 0.96696 0.50622 0.75652 0.0
H209 H 0.99037 0.44497 0.73732 0.0
H210 H -0.00159 0.58244 0.76727 0.0
H211 H 0.01215 0.64217 0.74152 0.0
C212 C 0.5666 0.05297 0.78766 0.0
C213 C 0.59539 0.03329 0.8217 0.0
C214 C 0.51072 0.02401 0.85962 0.0
C215 C 0.48146 0.03919 0.82451 0.0
N216 N 0.4803 0.05944 0.75312 0.0
N217 N 0.59527 0.99186 0.88784 0.0
C218 C 0.50902 0.05155 0.78795 0.0
C219 C 0.56752 0.01596 0.85692 0.0
N220 N 0.59428 0.07325 0.75517 0.0
N221 N 0.48472 0.02041 0.89609 0.0
H222 H 0.63717 0.98669 0.88765 0.0
H223 H 0.57636 0.97311 0.91229 0.0
H224 H 0.44354 0.02846 0.89967 0.0
H225 H 0.50474 0.015 0.92348 0.0
H226 H 0.57575 0.09401 0.73153 0.0
H227 H 0.63642 0.0723 0.75298 0.0
H228 H 0.49819 0.06291 0.72471 0.0
H229 H 0.43814 0.05789 0.75198 0.0
C230 C 0.04505 0.5052 0.28514 0.0
C231 C 0.01539 0.47807 0.31579 0.0
C232 C -0.00356 0.56408 0.34934 0.0
C233 C 0.0238 0.59167 0.31767 0.0
N234 N 0.06361 0.59004 0.251 0.0
N235 N 0.95278 0.48183 0.3719 0.0
C236 C 0.04517 0.56267 0.28424 0.0
C237 C 0.98743 0.50763 0.34602 0.0
N238 N 0.07345 0.47602 0.2571 0.0
N239 N 0.98252 0.59097 0.38392 0.0
H240 H 0.94606 0.44025 0.37123 0.0
H241 H 0.92709 0.50224 0.39172 0.0
H242 H 0.99084 0.63175 0.38839 0.0
H243 H 0.9679 0.57182 0.40979 0.0
H244 H 0.10122 0.49321 0.23715 0.0
H245 H 0.07138 0.43397 0.25515 0.0
H246 H 0.07475 0.57118 0.2241 0.0
H247 H 0.063 0.63212 0.24883 0.0
C248 C 0.18756 0.1989 0.2905 0.0
C249 C 0.14871 0.22951 0.26881 0.0
C250 C 0.18856 0.1982 0.20507 0.0
C251 C 0.22109 0.16091 0.22681 0.0
N252 N 0.24329 0.11873 0.29088 0.0
N253 N 0.10598 0.25068 0.20487 0.0
C254 C 0.21877 0.1595 0.26976 0.0
C255 C 0.14764 0.22754 0.22587 0.0
N256 N 0.19553 0.20816 0.33078 0.0
N257 N 0.19748 0.20662 0.16475 0.0
H258 H 0.0737 0.27065 0.21866 0.0
H259 H 0.10058 0.24525 0.1739 0.0
H260 H 0.22826 0.18715 0.14872 0.0
H261 H 0.17828 0.2371 0.14836 0.0
H262 H 0.22697 0.19047 0.3471 0.0
H263 H 0.17461 0.23796 0.34679 0.0
H264 H 0.23775 0.11308 0.32185 0.0
H265 H 0.26434 0.08711 0.27725 0.0
C266 C 0.8782 0.19762 0.70381 0.0
C267 C 0.91414 0.23128 0.72564 0.0
C268 C 0.87314 0.20026 0.78902 0.0
C269 C 0.84433 0.15996 0.76753 0.0
N270 N 0.82847 0.11375 0.70406 0.0
N271 N 0.95282 0.25656 0.79016 0.0
C272 C 0.84884 0.15698 0.72473 0.0
C273 C 0.91335 0.23087 0.7686 0.0
N274 N 0.87123 0.20502 0.6632 0.0
N275 N 0.86145 0.21011 0.82874 0.0
H276 H 0.98496 0.2772 0.77681 0.0
H277 H 0.95687 0.25245 0.82137 0.0
H278 H 0.83081 0.18986 0.84435 0.0
H279 H 0.87796 0.24241 0.84471 0.0
H280 H 0.84173 0.18472 0.64664 0.0
H281 H 0.89062 0.23568 0.64704 0.0
H282 H 0.83589 0.10741 0.6734 0.0
H283 H 0.80933 0.08115 0.71798 0.0
C284 C 0.88178 0.85987 0.27974 0.0
C285 C 0.92797 0.83938 0.25935 0.0
C286 C 0.89558 0.87987 0.19622 0.0
C287 C 0.85476 0.90772 0.21813 0.0
N288 N 0.81546 0.93144 0.28298 0.0
N289 N 0.98342 0.83691 0.19899 0.0
C290 C 0.84917 0.89944 0.26048 0.0
C291 C 0.93602 0.85083 0.21767 0.0
N292 N 0.86828 0.84066 0.3172 0.0
N293 N 0.89504 0.88002 0.15489 0.0
H294 H 0.01482 0.8169 0.2137 0.0
H295 H 0.99365 0.84977 0.16995 0.0
H296 H 0.86499 0.89938 0.13809 0.0
H297 H 0.92092 0.8562 0.13746 0.0
H298 H 0.83208 0.8505 0.33171 0.0
H299 H 0.89025 0.81032 0.33179 0.0
H300 H 0.81474 0.93062 0.31448 0.0
H301 H 0.7923 0.96271 0.27087 0.0
C302 C 0.15557 0.85874 0.76918 0.0
C303 C 0.16407 0.85189 0.72699 0.0
C304 C 0.23656 0.9192 0.72881 0.0
C305 C 0.23157 0.92192 0.7716 0.0
N306 N 0.19578 0.88327 0.83314 0.0
N307 N 0.22142 0.86568 0.66871 0.0
C308 C 0.19405 0.88817 0.792 0.0
C309 C 0.20736 0.87901 0.70742 0.0
N310 N 0.10922 0.84042 0.78722 0.0
N311 N 0.26623 0.95683 0.70813 0.0
H312 H 0.20197 0.83531 0.65243 0.0
H313 H 0.25595 0.88069 0.65445 0.0
H314 H 0.28643 0.98868 0.72204 0.0
H315 H 0.26613 0.95974 0.6767 0.0
H316 H 0.09897 0.84952 0.81703 0.0
H317 H 0.0781 0.82138 0.77153 0.0
H318 H 0.17249 0.85528 0.84907 0.0
H319 H 0.22467 0.90278 0.85085 0.0
C320 C 0.84062 0.86747 0.75854 0.0
C321 C 0.85464 0.92233 0.76515 0.0
C322 C 0.94278 0.90779 0.73314 0.0
C323 C 0.92713 0.85426 0.72324 0.0
N324 N 0.85882 0.78477 0.72137 0.0
N325 N 0.91348 -0.00206 0.75104 0.0
C326 C 0.87538 0.83439 0.73459 0.0
C327 C 0.90411 0.94345 0.7502 0.0
N328 N 0.79508 0.84667 0.77618 0.0
N329 N -0.00465 0.92389 0.72815 0.0
H330 H 0.88578 0.0257 0.76273 0.0
H331 H 0.94622 0.0161 0.7365 0.0
H332 H 0.02568 0.89853 0.71706 0.0
H333 H 0.01015 0.96055 0.73892 0.0
H334 H 0.7857 0.80564 0.77624 0.0
H335 H 0.76844 0.87004 0.79339 0.0
H336 H 0.81956 0.7703 0.72507 0.0
H337 H 0.88323 0.75956 0.70379 0.0
C338 C 0.19531 0.88697 0.20575 0.0
C339 C 0.24097 0.90924 0.22574 0.0
C340 C 0.21923 0.85674 0.28659 0.0
C341 C 0.17474 0.83332 0.26601 0.0
N342 N 0.12998 0.81458 0.20256 0.0
N343 N 0.30388 0.90602 0.28129 0.0
C344 C 0.16631 0.84418 0.22436 0.0
C345 C 0.25524 0.89129 0.26507 0.0
N346 N 0.17658 0.90946 0.17062 0.0
N347 N 0.22672 0.84635 0.3268 0.0
H348 H 0.33174 0.93009 0.26581 0.0
H349 H 0.31889 0.89037 0.30827 0.0
H350 H 0.20366 0.81807 0.34272 0.0
H351 H 0.25411 0.86737 0.34475 0.0
H352 H 0.13979 0.8988 0.15753 0.0
H353 H 0.19429 0.94278 0.15661 0.0
H354 H 0.12669 0.81731 0.17122 0.0
H355 H 0.10689 0.78346 0.21483 0.0
C356 C 0.2003 0.25196 0.74683 0.0
C357 C 0.15568 0.22884 0.72615 0.0
C358 C 0.18701 0.13798 0.74418 0.0
C359 C 0.22853 0.16119 0.76802 0.0
N360 N 0.27193 0.23962 0.79623 0.0
N361 N 0.09977 0.15081 0.71264 0.0
C362 C 0.23434 0.21808 0.77066 0.0
C363 C 0.1473 0.17206 0.72662 0.0
N364 N 0.21135 0.30579 0.74239 0.0
N365 N 0.1854 0.08328 0.73824 0.0
H366 H 0.06839 0.17433 0.70102 0.0
H367 H 0.08895 0.11043 0.7164 0.0
H368 H 0.21251 0.05647 0.75169 0.0
H369 H 0.15996 0.06483 0.71733 0.0
H370 H 0.24633 0.32403 0.75331 0.0
H371 H 0.18768 0.33162 0.72478 0.0
H372 H 0.27417 0.28066 0.80298 0.0
H373 H 0.2989 0.21586 0.81282 0.0
C374 C 0.86106 0.23714 0.2555 0.0
C375 C 0.90594 0.21609 0.27716 0.0
C376 C 0.87777 0.12372 0.2609 0.0
C377 C 0.83687 0.14499 0.23542 0.0
N378 N 0.79126 0.22117 0.20533 0.0
N379 N 0.96294 0.13992 0.29455 0.0
C380 C 0.82892 0.20156 0.23183 0.0
C381 C 0.91564 0.15948 0.27871 0.0
N382 N 0.84817 0.29076 0.25867 0.0
N383 N 0.88084 0.06925 0.26778 0.0
H384 H 0.99306 0.16449 0.3066 0.0
H385 H 0.97495 0.09965 0.29222 0.0
H386 H 0.85542 0.04133 0.2539 0.0
H387 H 0.90568 0.05205 0.28974 0.0
H388 H 0.81297 0.30765 0.24683 0.0
H389 H 0.87037 0.31773 0.27628 0.0
H390 H 0.78779 0.2619 0.19776 0.0
H391 H 0.76532 0.19614 0.18902 0.0
loop_
_geom_bond_atom_site_label_1
_geom_bond_atom_site_label_2
_geom_bond_distance
_geom_bond_site_symmetry_2
_ccdc_geom_bond_type
In0 O1 2.294 . S
In0 O2 2.326 1_545 S
In0 O6 2.266 . S
In0 O7 2.326 . S
In0 O8 2.266 1_545 S
In0 O9 2.326 1_545 S
In0 O11 2.294 . S
In0 O12 2.326 . S
O1 In0 2.294 . S
O1 C10 1.240 . S
O2 In0 2.326 1_565 S
O2 C10 1.252 1_565 S
C3 O6 1.252 . S
C3 O7 1.260 . S
C4 O11 1.240 . S
C4 O12 1.252 . S
C5 O8 1.252 . S
C5 O9 1.260 . S
O6 In0 2.266 . S
O6 C3 1.252 . S
O7 In0 2.326 . S
O7 C3 1.260 . S
O8 In0 2.266 1_565 S
O8 C5 1.252 . S
O9 In0 2.326 1_565 S
O9 C5 1.260 . S
C10 O1 1.240 . S
C10 O2 1.252 1_545 S
O11 In0 2.294 . S
O11 C4 1.240 . S
O12 In0 2.326 . S
O12 C4 1.252 . S
In13 O14 2.294 . S
In13 O15 2.326 . S
In13 O19 2.266 1_455 S
In13 O20 2.326 . S
In13 O21 2.266 . S
In13 O22 2.326 . S
In13 O24 2.294 . S
In13 O25 2.326 . S
O14 In13 2.294 . S
O14 C23 1.240 . S
O15 In13 2.326 . S
O15 C23 1.252 . S
C16 O19 1.252 . S
C16 O20 1.260 1_655 S
C17 O24 1.240 . S
C17 O25 1.252 . S
C18 O21 1.252 . S
C18 O22 1.260 . S
O19 In13 2.266 1_655 S
O19 C16 1.252 . S
O20 In13 2.326 . S
O20 C16 1.260 1_455 S
O21 In13 2.266 . S
O21 C18 1.252 . S
O22 In13 2.326 . S
O22 C18 1.260 . S
C23 O14 1.240 . S
C23 O15 1.252 . S
O24 In13 2.294 . S
O24 C17 1.240 . S
O25 In13 2.326 . S
O25 C17 1.252 . S
In26 O27 2.294 . S
In26 O28 2.326 . S
In26 O32 2.266 1_545 S
In26 O33 2.326 . S
In26 O34 2.266 . S
In26 O35 2.326 . S
In26 O37 2.294 . S
In26 O38 2.326 . S
O27 In26 2.294 . S
O27 C36 1.240 . S
O28 In26 2.326 . S
O28 C36 1.252 . S
C29 O32 1.252 . S
C29 O33 1.260 1_565 S
C30 O37 1.240 . S
C30 O38 1.252 . S
C31 O34 1.252 . S
C31 O35 1.260 . S
O32 In26 2.266 1_565 S
O32 C29 1.252 . S
O33 In26 2.326 . S
O33 C29 1.260 1_545 S
O34 In26 2.266 . S
O34 C31 1.252 . S
O35 In26 2.326 . S
O35 C31 1.260 . S
C36 O27 1.240 . S
C36 O28 1.252 . S
O37 In26 2.294 . S
O37 C30 1.240 . S
O38 In26 2.326 . S
O38 C30 1.252 . S
In39 O40 2.294 . S
In39 O41 2.326 . S
In39 O45 2.266 1_455 S
In39 O46 2.326 1_455 S
In39 O47 2.266 . S
In39 O48 2.326 . S
In39 O50 2.294 . S
In39 O51 2.326 1_455 S
O40 In39 2.294 . S
O40 C49 1.240 . S
O41 In39 2.326 . S
O41 C49 1.252 . S
C42 O45 1.252 . S
C42 O46 1.260 . S
C43 O50 1.240 . S
C43 O51 1.252 1_455 S
C44 O47 1.252 . S
C44 O48 1.260 . S
O45 In39 2.266 1_655 S
O45 C42 1.252 . S
O46 In39 2.326 1_655 S
O46 C42 1.260 . S
O47 In39 2.266 . S
O47 C44 1.252 . S
O48 In39 2.326 . S
O48 C44 1.260 . S
C49 O40 1.240 . S
C49 O41 1.252 . S
O50 In39 2.294 . S
O50 C43 1.240 . S
O51 In39 2.326 1_655 S
O51 C43 1.252 1_655 S
In52 O53 2.294 . S
In52 O54 2.326 . S
In52 O58 2.266 . S
In52 O59 2.326 . S
In52 O60 2.266 1_545 S
In52 O61 2.326 . S
In52 O63 2.294 . S
In52 O64 2.326 . S
O53 In52 2.294 . S
O53 C62 1.240 . S
O54 In52 2.326 . S
O54 C62 1.252 . S
C55 O58 1.252 . S
C55 O59 1.260 . S
C56 O63 1.240 . S
C56 O64 1.252 . S
C57 O60 1.252 . S
C57 O61 1.260 1_565 S
O58 In52 2.266 . S
O58 C55 1.252 . S
O59 In52 2.326 . S
O59 C55 1.260 . S
O60 In52 2.266 1_565 S
O60 C57 1.252 . S
O61 In52 2.326 . S
O61 C57 1.260 1_545 S
C62 O53 1.240 . S
C62 O54 1.252 . S
O63 In52 2.294 . S
O63 C56 1.240 . S
O64 In52 2.326 . S
O64 C56 1.252 . S
In65 O66 2.294 . S
In65 O67 2.326 1_455 S
In65 O71 2.266 . S
In65 O72 2.326 . S
In65 O73 2.266 1_455 S
In65 O74 2.326 1_455 S
In65 O76 2.294 . S
In65 O77 2.326 . S
O66 In65 2.294 . S
O66 C75 1.240 . S
O67 In65 2.326 1_655 S
O67 C75 1.252 1_655 S
C68 O71 1.252 . S
C68 O72 1.260 . S
C69 O76 1.240 . S
C69 O77 1.252 . S
C70 O73 1.252 . S
C70 O74 1.260 . S
O71 In65 2.266 . S
O71 C68 1.252 . S
O72 In65 2.326 . S
O72 C68 1.260 . S
O73 In65 2.266 1_655 S
O73 C70 1.252 . S
O74 In65 2.326 1_655 S
O74 C70 1.260 . S
C75 O66 1.240 . S
C75 O67 1.252 1_455 S
O76 In65 2.294 . S
O76 C69 1.240 . S
O77 In65 2.326 . S
O77 C69 1.252 . S
In78 O79 2.294 . S
In78 O80 2.326 . S
In78 O84 2.266 1_545 S
In78 O85 2.326 1_545 S
In78 O86 2.266 . S
In78 O87 2.326 . S
In78 O89 2.294 . S
In78 O90 2.326 1_545 S
O79 In78 2.294 . S
O79 C88 1.240 . S
O80 In78 2.326 . S
O80 C88 1.252 . S
C81 O84 1.252 . S
C81 O85 1.260 . S
C82 O89 1.240 . S
C82 O90 1.252 1_545 S
C83 O86 1.252 . S
C83 O87 1.260 . S
O84 In78 2.266 1_565 S
O84 C81 1.252 . S
O85 In78 2.326 1_565 S
O85 C81 1.260 . S
O86 In78 2.266 . S
O86 C83 1.252 . S
O87 In78 2.326 . S
O87 C83 1.260 . S
C88 O79 1.240 . S
C88 O80 1.252 . S
O89 In78 2.294 . S
O89 C82 1.240 . S
O90 In78 2.326 1_565 S
O90 C82 1.252 1_565 S
In91 O92 2.294 . S
In91 O93 2.326 . S
In91 O97 2.266 . S
In91 O98 2.326 . S
In91 O99 2.266 1_455 S
In91 O100 2.326 . S
In91 O102 2.294 . S
In91 O103 2.326 . S
O92 In91 2.294 . S
O92 C101 1.240 . S
O93 In91 2.326 . S
O93 C101 1.252 . S
C94 O97 1.252 . S
C94 O98 1.260 . S
C95 O102 1.240 . S
C95 O103 1.252 . S
C96 O99 1.252 . S
C96 O100 1.260 1_655 S
O97 In91 2.266 . S
O97 C94 1.252 . S
O98 In91 2.326 . S
O98 C94 1.260 . S
O99 In91 2.266 1_655 S
O99 C96 1.252 . S
O100 In91 2.326 . S
O100 C96 1.260 1_455 S
C101 O92 1.240 . S
C101 O93 1.252 . S
O102 In91 2.294 . S
O102 C95 1.240 . S
O103 In91 2.326 . S
O103 C95 1.252 . S
C104 C105 1.363 . S
C104 C110 1.380 1_554 S
C104 N112 1.356 1_545 S
C105 C104 1.363 . S
C105 C111 1.363 . S
C106 C107 1.363 . S
C106 C111 1.379 1_556 S
C106 N113 1.356 . S
C107 C106 1.363 . S
C107 C110 1.370 . S
N108 C110 1.350 1_565 S
N108 H120 0.984 . S
N108 H121 0.985 . S
N109 C111 1.356 . S
N109 H114 0.984 . S
N109 H115 0.985 . S
C110 C104 1.380 1_556 S
C110 C107 1.370 . S
C110 N108 1.350 1_545 S
C111 C105 1.363 . S
C111 C106 1.379 1_554 S
C111 N109 1.356 . S
N112 C104 1.356 1_565 S
N112 H118 0.984 . S
N112 H119 0.984 . S
N113 C106 1.356 . S
N113 H116 0.984 . S
N113 H117 0.985 . S
H114 N109 0.984 . S
H115 N109 0.985 . S
H116 N113 0.984 . S
H117 N113 0.985 . S
H118 N112 0.984 . S
H119 N112 0.984 . S
H120 N108 0.984 . S
H121 N108 0.985 . S
C122 C123 1.363 . S
C122 C128 1.379 . S
C122 N130 1.356 . S
C123 C122 1.363 . S
C123 C129 1.363 . S
C124 C125 1.363 . S
C124 C129 1.379 . S
C124 N131 1.355 1_455 S
C125 C124 1.363 . S
C125 C128 1.363 . S
N126 C128 1.356 . S
N126 H138 0.984 . S
N126 H139 0.985 . S
N127 C129 1.356 1_655 S
N127 H132 0.984 . S
N127 H133 0.985 . S
C128 C122 1.379 . S
C128 C125 1.363 . S
C128 N126 1.356 . S
C129 C123 1.363 . S
C129 C124 1.379 . S
C129 N127 1.356 1_455 S
N130 C122 1.356 . S
N130 H136 0.984 . S
N130 H137 0.984 . S
N131 C124 1.355 1_655 S
N131 H134 0.984 1_655 S
N131 H135 0.986 . S
H132 N127 0.984 . S
H133 N127 0.985 . S
H134 N131 0.984 1_455 S
H135 N131 0.986 . S
H136 N130 0.984 . S
H137 N130 0.984 . S
H138 N126 0.984 . S
H139 N126 0.985 . S
C140 C141 1.363 . S
C140 C146 1.379 1_556 S
C140 N148 1.356 . S
C141 C140 1.363 . S
C141 C147 1.363 . S
C142 C143 1.363 . S
C142 C147 1.379 1_554 S
C142 N149 1.356 . S
C143 C142 1.363 . S
C143 C146 1.363 . S
N144 C146 1.356 . S
N144 H156 0.985 1_545 S
N144 H157 0.984 . S
N145 C147 1.356 . S
N145 H150 0.984 . S
N145 H151 0.985 . S
C146 C140 1.379 1_554 S
C146 C143 1.363 . S
C146 N144 1.356 . S
C147 C141 1.363 . S
C147 C142 1.379 1_556 S
C147 N145 1.356 . S
N148 C140 1.356 . S
N148 H154 0.984 1_545 S
N148 H155 0.984 . S
N149 C142 1.356 . S
N149 H152 0.984 . S
N149 H153 0.985 . S
H150 N145 0.984 . S
H151 N145 0.985 . S
H152 N149 0.984 . S
H153 N149 0.985 . S
H154 N148 0.984 1_565 S
H155 N148 0.984 . S
H156 N144 0.985 1_565 S
H157 N144 0.984 . S
C158 C159 1.363 . S
C158 C164 1.379 . S
C158 N166 1.356 . S
C159 C158 1.363 . S
C159 C165 1.363 . S
C160 C161 1.363 . S
C160 C165 1.379 . S
C160 N167 1.356 1_455 S
C161 C160 1.363 . S
C161 C164 1.363 . S
N162 C164 1.356 . S
N162 H174 0.984 . S
N162 H175 0.985 . S
N163 C165 1.356 1_655 S
N163 H168 0.984 . S
N163 H169 0.985 . S
C164 C158 1.379 . S
C164 C161 1.363 . S
C164 N162 1.356 . S
C165 C159 1.363 . S
C165 C160 1.379 . S
C165 N163 1.356 1_455 S
N166 C158 1.356 . S
N166 H172 0.984 . S
N166 H173 0.984 . S
N167 C160 1.356 1_655 S
N167 H170 0.984 1_655 S
N167 H171 0.986 . S
H168 N163 0.984 . S
H169 N163 0.985 . S
H170 N167 0.984 1_455 S
H171 N167 0.986 . S
H172 N166 0.984 . S
H173 N166 0.984 . S
H174 N162 0.984 . S
H175 N162 0.985 . S
C176 C177 1.363 . S
C176 C182 1.379 . S
C176 N184 1.356 . S
C177 C176 1.363 . S
C177 C183 1.363 . S
C178 C179 1.363 . S
C178 C183 1.379 . S
C178 N185 1.356 . S
C179 C178 1.363 . S
C179 C182 1.363 . S
N180 C182 1.356 . S
N180 H192 0.984 . S
N180 H193 0.985 . S
N181 C183 1.356 1_565 S
N181 H186 0.984 . S
N181 H187 0.985 . S
C182 C176 1.379 . S
C182 C179 1.363 . S
C182 N180 1.356 . S
C183 C177 1.363 . S
C183 C178 1.379 . S
C183 N181 1.356 1_545 S
N184 C176 1.356 . S
N184 H190 0.984 . S
N184 H191 0.984 . S
N185 C178 1.356 . S
N185 H188 0.984 . S
N185 H189 0.985 1_545 S
H186 N181 0.984 . S
H187 N181 0.985 . S
H188 N185 0.984 . S
H189 N185 0.985 1_565 S
H190 N184 0.984 . S
H191 N184 0.984 . S
H192 N180 0.984 . S
H193 N180 0.985 . S
C194 C195 1.363 . S
C194 C200 1.379 . S
C194 N202 1.356 . S
C195 C194 1.363 . S
C195 C201 1.363 . S
C196 C197 1.363 . S
C196 C201 1.379 . S
C196 N203 1.356 . S
C197 C196 1.363 . S
C197 C200 1.363 . S
N198 C200 1.356 1_655 S
N198 H210 0.984 . S
N198 H211 0.985 . S
N199 C201 1.356 . S
N199 H204 0.984 . S
N199 H205 0.985 . S
C200 C194 1.379 . S
C200 C197 1.363 . S
C200 N198 1.356 1_455 S
C201 C195 1.363 . S
C201 C196 1.379 . S
C201 N199 1.356 . S
N202 C194 1.356 . S
N202 H208 0.984 1_455 S
N202 H209 0.984 . S
N203 C196 1.356 . S
N203 H206 0.984 . S
N203 H207 0.985 . S
H204 N199 0.984 . S
H205 N199 0.985 . S
H206 N203 0.984 . S
H207 N203 0.985 . S
H208 N202 0.984 1_655 S
H209 N202 0.984 . S
H210 N198 0.984 . S
H211 N198 0.985 . S
C212 C213 1.363 . S
C212 C218 1.379 . S
C212 N220 1.356 . S
C213 C212 1.363 . S
C213 C219 1.363 . S
C214 C215 1.363 . S
C214 C219 1.379 . S
C214 N221 1.356 . S
C215 C214 1.363 . S
C215 C218 1.363 . S
N216 C218 1.356 . S
N216 H228 0.984 . S
N216 H229 0.985 . S
N217 C219 1.356 1_565 S
N217 H222 0.984 . S
N217 H223 0.985 . S
C218 C212 1.379 . S
C218 C215 1.363 . S
C218 N216 1.356 . S
C219 C213 1.363 . S
C219 C214 1.379 . S
C219 N217 1.356 1_545 S
N220 C212 1.356 . S
N220 H226 0.984 . S
N220 H227 0.984 . S
N221 C214 1.356 . S
N221 H224 0.984 . S
N221 H225 0.985 1_545 S
H222 N217 0.984 . S
H223 N217 0.985 . S
H224 N221 0.984 . S
H225 N221 0.985 1_565 S
H226 N220 0.984 . S
H227 N220 0.984 . S
H228 N216 0.984 . S
H229 N216 0.985 . S
C230 C231 1.363 . S
C230 C236 1.379 . S
C230 N238 1.356 . S
C231 C230 1.363 . S
C231 C237 1.363 . S
C232 C233 1.363 . S
C232 C237 1.379 . S
C232 N239 1.356 . S
C233 C232 1.363 . S
C233 C236 1.363 . S
N234 C236 1.356 . S
N234 H246 0.984 . S
N234 H247 0.985 . S
N235 C237 1.356 1_655 S
N235 H240 0.984 . S
N235 H241 0.985 . S
C236 C230 1.379 . S
C236 C233 1.363 . S
C236 N234 1.356 . S
C237 C231 1.363 . S
C237 C232 1.379 . S
C237 N235 1.356 1_455 S
N238 C230 1.356 . S
N238 H244 0.984 . S
N238 H245 0.984 . S
N239 C232 1.356 . S
N239 H242 0.984 . S
N239 H243 0.985 1_455 S
H240 N235 0.984 . S
H241 N235 0.985 . S
H242 N239 0.984 . S
H243 N239 0.985 1_655 S
H244 N238 0.984 . S
H245 N238 0.984 . S
H246 N234 0.984 . S
H247 N234 0.985 . S
C248 C249 1.363 . S
C248 C254 1.379 . S
C248 N256 1.356 . S
C249 C248 1.363 . S
C249 C255 1.363 . S
C250 C251 1.363 . S
C250 C255 1.379 . S
C250 N257 1.356 . S
C251 C250 1.363 . S
C251 C254 1.363 . S
N252 C254 1.356 . S
N252 H264 0.984 . S
N252 H265 0.985 . S
N253 C255 1.356 . S
N253 H258 0.984 . S
N253 H259 0.985 . S
C254 C248 1.379 . S
C254 C251 1.363 . S
C254 N252 1.356 . S
C255 C249 1.363 . S
C255 C250 1.379 . S
C255 N253 1.356 . S
N256 C248 1.356 . S
N256 H262 0.984 . S
N256 H263 0.984 . S
N257 C250 1.356 . S
N257 H260 0.984 . S
N257 H261 0.985 . S
H258 N253 0.984 . S
H259 N253 0.985 . S
H260 N257 0.984 . S
H261 N257 0.985 . S
H262 N256 0.984 . S
H263 N256 0.984 . S
H264 N252 0.984 . S
H265 N252 0.985 . S
C266 C267 1.363 . S
C266 C272 1.379 . S
C266 N274 1.356 . S
C267 C266 1.363 . S
C267 C273 1.363 . S
C268 C269 1.363 . S
C268 C273 1.379 . S
C268 N275 1.356 . S
C269 C268 1.363 . S
C269 C272 1.363 . S
N270 C272 1.356 . S
N270 H282 0.984 . S
N270 H283 0.985 . S
N271 C273 1.356 1_455 S
N271 H276 0.984 . S
N271 H277 0.985 . S
C272 C266 1.379 . S
C272 C269 1.363 . S
C272 N270 1.356 . S
C273 C267 1.363 . S
C273 C268 1.379 . S
C273 N271 1.356 1_655 S
N274 C266 1.356 . S
N274 H280 0.984 . S
N274 H281 0.984 . S
N275 C268 1.356 . S
N275 H278 0.984 . S
N275 H279 0.985 . S
H276 N271 0.984 . S
H277 N271 0.985 . S
H278 N275 0.984 . S
H279 N275 0.985 . S
H280 N274 0.984 . S
H281 N274 0.984 . S
H282 N270 0.984 . S
H283 N270 0.985 . S
C284 C285 1.363 . S
C284 C290 1.379 . S
C284 N292 1.356 . S
C285 C284 1.363 . S
C285 C291 1.363 . S
C286 C287 1.363 . S
C286 C291 1.379 . S
C286 N293 1.356 . S
C287 C286 1.363 . S
C287 C290 1.363 . S
N288 C290 1.356 . S
N288 H300 0.984 . S
N288 H301 0.985 . S
N289 C291 1.356 1_455 S
N289 H294 0.984 . S
N289 H295 0.985 . S
C290 C284 1.379 . S
C290 C287 1.363 . S
C290 N288 1.356 . S
C291 C285 1.363 . S
C291 C286 1.379 . S
C291 N289 1.356 1_655 S
N292 C284 1.356 . S
N292 H298 0.984 . S
N292 H299 0.984 . S
N293 C286 1.356 . S
N293 H296 0.984 . S
N293 H297 0.985 . S
H294 N289 0.984 . S
H295 N289 0.985 . S
H296 N293 0.984 . S
H297 N293 0.985 . S
H298 N292 0.984 . S
H299 N292 0.984 . S
H300 N288 0.984 . S
H301 N288 0.985 . S
C302 C303 1.363 . S
C302 C308 1.379 . S
C302 N310 1.356 . S
C303 C302 1.363 . S
C303 C309 1.363 . S
C304 C305 1.363 . S
C304 C309 1.379 . S
C304 N311 1.356 . S
C305 C304 1.363 . S
C305 C308 1.363 . S
N306 C308 1.356 . S
N306 H318 0.984 . S
N306 H319 0.985 . S
N307 C309 1.356 . S
N307 H312 0.984 . S
N307 H313 0.985 . S
C308 C302 1.379 . S
C308 C305 1.363 . S
C308 N306 1.356 . S
C309 C303 1.363 . S
C309 C304 1.379 . S
C309 N307 1.356 . S
N310 C302 1.356 . S
N310 H316 0.984 . S
N310 H317 0.984 . S
N311 C304 1.356 . S
N311 H314 0.984 . S
N311 H315 0.985 . S
H312 N307 0.984 . S
H313 N307 0.985 . S
H314 N311 0.984 . S
H315 N311 0.985 . S
H316 N310 0.984 . S
H317 N310 0.984 . S
H318 N306 0.984 . S
H319 N306 0.985 . S
C320 C321 1.363 . S
C320 C326 1.379 . S
C320 N328 1.356 . S
C321 C320 1.363 . S
C321 C327 1.363 . S
C322 C323 1.363 . S
C322 C327 1.379 . S
C322 N329 1.356 . S
C323 C322 1.363 . S
C323 C326 1.363 . S
N324 C326 1.356 . S
N324 H336 0.984 . S
N324 H337 0.985 . S
N325 C327 1.356 . S
N325 H330 0.984 . S
N325 H331 0.985 . S
C326 C320 1.379 . S
C326 C323 1.363 . S
C326 N324 1.356 . S
C327 C321 1.363 . S
C327 C322 1.379 . S
C327 N325 1.356 . S
N328 C320 1.356 . S
N328 H334 0.984 . S
N328 H335 0.984 . S
N329 C322 1.356 . S
N329 H332 0.984 . S
N329 H333 0.985 . S
H330 N325 0.984 . S
H331 N325 0.985 . S
H332 N329 0.984 . S
H333 N329 0.985 . S
H334 N328 0.984 . S
H335 N328 0.984 . S
H336 N324 0.984 . S
H337 N324 0.985 . S
C338 C339 1.363 . S
C338 C344 1.379 . S
C338 N346 1.356 . S
C339 C338 1.363 . S
C339 C345 1.363 . S
C340 C341 1.363 . S
C340 C345 1.379 . S
C340 N347 1.356 . S
C341 C340 1.363 . S
C341 C344 1.363 . S
N342 C344 1.356 . S
N342 H354 0.984 . S
N342 H355 0.985 . S
N343 C345 1.356 . S
N343 H348 0.984 . S
N343 H349 0.985 . S
C344 C338 1.379 . S
C344 C341 1.363 . S
C344 N342 1.356 . S
C345 C339 1.363 . S
C345 C340 1.379 . S
C345 N343 1.356 . S
N346 C338 1.356 . S
N346 H352 0.984 . S
N346 H353 0.984 . S
N347 C340 1.356 . S
N347 H350 0.984 . S
N347 H351 0.985 . S
H348 N343 0.984 . S
H349 N343 0.985 . S
H350 N347 0.984 . S
H351 N347 0.985 . S
H352 N346 0.984 . S
H353 N346 0.984 . S
H354 N342 0.984 . S
H355 N342 0.985 . S
C356 C357 1.363 . S
C356 C362 1.379 . S
C356 N364 1.356 . S
C357 C356 1.363 . S
C357 C363 1.363 . S
C358 C359 1.363 . S
C358 C363 1.379 . S
C358 N365 1.356 . S
C359 C358 1.363 . S
C359 C362 1.363 . S
N360 C362 1.356 . S
N360 H372 0.984 . S
N360 H373 0.985 . S
N361 C363 1.356 . S
N361 H366 0.984 . S
N361 H367 0.985 . S
C362 C356 1.379 . S
C362 C359 1.363 . S
C362 N360 1.356 . S
C363 C357 1.363 . S
C363 C358 1.379 . S
C363 N361 1.356 . S
N364 C356 1.356 . S
N364 H370 0.984 . S
N364 H371 0.984 . S
N365 C358 1.356 . S
N365 H368 0.984 . S
N365 H369 0.985 . S
H366 N361 0.984 . S
H367 N361 0.985 . S
H368 N365 0.984 . S
H369 N365 0.985 . S
H370 N364 0.984 . S
H371 N364 0.984 . S
H372 N360 0.984 . S
H373 N360 0.985 . S
C374 C375 1.363 . S
C374 C380 1.379 . S
C374 N382 1.356 . S
C375 C374 1.363 . S
C375 C381 1.363 . S
C376 C377 1.363 . S
C376 C381 1.379 . S
C376 N383 1.356 . S
C377 C376 1.363 . S
C377 C380 1.363 . S
N378 C380 1.356 . S
N378 H390 0.984 . S
N378 H391 0.985 . S
N379 C381 1.356 . S
N379 H384 0.984 . S
N379 H385 0.985 . S
C380 C374 1.379 . S
C380 C377 1.363 . S
C380 N378 1.356 . S
C381 C375 1.363 . S
C381 C376 1.379 . S
C381 N379 1.356 . S
N382 C374 1.356 . S
N382 H388 0.984 . S
N382 H389 0.984 . S
N383 C376 1.356 . S
N383 H386 0.984 . S
N383 H387 0.985 . S
H384 N379 0.984 . S
H385 N379 0.985 . S
H386 N383 0.984 . S
H387 N383 0.985 . S
H388 N382 0.984 . S
H389 N382 0.984 . S
H390 N378 0.984 . S
H391 N378 0.985 . S
C105 C4 1.596 . S
C107 C62 1.596 . S
C123 C17 1.596 . S
C125 C69 1.596 . S
C141 C88 1.596 . S
C143 C30 1.596 . S
C159 C101 1.596 . S
C161 C49 1.596 . S
C177 C10 1.476 . S
C179 C36 1.476 . S
C195 C23 1.476 . S
C197 C43 1.476 . S
C213 C82 1.476 . S
C215 C56 1.476 . S
C231 C75 1.476 . S
C233 C95 1.476 . S
C249 C68 1.619 . S
C251 C3 1.619 . S
C267 C16 1.619 . S
C269 C83 1.619 . S
C285 C96 1.619 . S
C287 C29 1.619 . S
C303 C44 1.619 . S
C305 C57 1.619 . S
C321 C81 1.329 . S
C323 C42 1.329 . S
C339 C5 1.329 . S
C341 C94 1.329 . S
C357 C18 1.329 . S
C359 C55 1.329 . S
C375 C70 1.329 . S
C377 C31 1.329 . S
