# Generated by pormake.
# Topology dft, (4)-cn, num edge types: 1
# Building blocks:
#     Node 0, Type 0, BuildingBlock: NAHDIM_clean_sbu_0, # of connection points: 4
#     Node 1, Type 0, BuildingBlock: NAHDIM_clean_sbu_0, # of connection points: 4
#     Node 2, Type 0, BuildingBlock: NAHDIM_clean_sbu_0, # of connection points: 4
#     Node 3, Type 0, BuildingBlock: NAHDIM_clean_sbu_0, # of connection points: 4
#     Node 4, Type 0, BuildingBlock: NAHDIM_clean_sbu_0, # of connection points: 4
#     Node 5, Type 0, BuildingBlock: NAHDIM_clean_sbu_0, # of connection points: 4
#     Node 6, Type 0, BuildingBlock: NAHDIM_clean_sbu_0, # of connection points: 4
#     Node 7, Type 0, BuildingBlock: NAHDIM_clean_sbu_0, # of connection points: 4
#     Edge 8, Type (0, 0), None
#     Edge 9, Type (0, 0), None
#     Edge 10, Type (0, 0), None
#     Edge 11, Type (0, 0), None
#     Edge 12, Type (0, 0), None
#     Edge 13, Type (0, 0), None
#     Edge 14, Type (0, 0), None
#     Edge 15, Type (0, 0), None
#     Edge 16, Type (0, 0), None
#     Edge 17, Type (0, 0), None
#     Edge 18, Type (0, 0), None
#     Edge 19, Type (0, 0), None
#     Edge 20, Type (0, 0), None
#     Edge 21, Type (0, 0), None
#     Edge 22, Type (0, 0), None
#     Edge 23, Type (0, 0), None
# Relax obj value: 0.143
# Max RMSD: 0.141
# Mean RMSD: 0.141
data_MOF--net-dft--node1-NAHDIM_clean_sbu_0--edge1-none
_symmetry_space_group_name_H-M    P1
_symmetry_Int_Tables_number       1
_symmetry_cell_setting            triclinic
loop_
_symmetry_equiv_pos_as_xyz
'x, y, z'
_cell_length_a     16.470067
_cell_length_b     16.470067
_cell_length_c     17.262187
_cell_angle_alpha  89.999965
_cell_angle_beta   90.000034
_cell_angle_gamma 89.999997
loop_
_atom_site_label
_atom_site_type_symbol
_atom_site_fract_x
_atom_site_fract_y
_atom_site_fract_z
_atom_type_partial_charge
C0 C 0.47449 0.031 0.21893 0.0
O1 O 0.4587 0.10884 0.21217 0.0
O2 O 0.26505 0.11549 0.24696 0.0
Zn3 Zn 0.30236 0.01311 0.18873 0.0
O4 O 0.29658 0.02352 0.07173 0.0
C5 C 0.15468 0.93991 0.23301 0.0
O6 O 0.13247 0.01608 0.22847 0.0
O7 O 0.41697 0.97998 0.21437 0.0
C8 C 0.23075 0.01559 0.03401 0.0
O9 O 0.16191 0.00626 0.07105 0.0
C10 C 0.22525 0.17382 0.21667 0.0
O11 O 0.21459 0.17536 0.14132 0.0
O12 O 0.228 0.92091 0.21956 0.0
C13 C 0.00233 0.47449 0.71893 0.0
O14 O 0.92449 0.45871 0.71217 0.0
O15 O 0.91784 0.26506 0.74697 0.0
Zn16 Zn 0.02022 0.30237 0.68874 0.0
O17 O 0.0098 0.29659 0.57174 0.0
C18 C 0.09342 0.15469 0.73301 0.0
O19 O 0.01725 0.13248 0.72848 0.0
O20 O 0.05334 0.41698 0.71437 0.0
C21 C 0.01773 0.23075 0.53401 0.0
O22 O 0.02706 0.16191 0.57106 0.0
C23 C 0.85951 0.22526 0.71668 0.0
O24 O 0.85796 0.2146 0.64133 0.0
O25 O 0.11242 0.22801 0.71957 0.0
C26 C 0.55883 0.00232 0.21893 0.0
O27 O 0.57461 0.92447 0.2122 0.0
O28 O 0.76827 0.91783 0.24696 0.0
Zn29 Zn 0.73096 0.02021 0.18873 0.0
O30 O 0.73675 0.0098 0.07174 0.0
C31 C 0.87863 0.09341 0.23302 0.0
O32 O 0.90084 0.01724 0.22849 0.0
O33 O 0.61635 0.05333 0.21436 0.0
C34 C 0.80259 0.01773 0.03401 0.0
O35 O 0.87142 0.02705 0.07106 0.0
C36 C 0.80807 0.8595 0.21667 0.0
O37 O 0.81873 0.85796 0.14132 0.0
O38 O 0.80532 0.11241 0.21957 0.0
C39 C 0.03101 0.55884 0.71893 0.0
O40 O 0.10885 0.57462 0.7122 0.0
O41 O 0.1155 0.76828 0.74696 0.0
Zn42 Zn 0.01312 0.73096 0.68873 0.0
O43 O 0.02353 0.73675 0.57173 0.0
C44 C 0.93992 0.87864 0.73301 0.0
O45 O 0.01609 0.90085 0.72847 0.0
O46 O 0.97999 0.61636 0.71436 0.0
C47 C 0.01559 0.80259 0.53401 0.0
O48 O 0.00626 0.87142 0.57105 0.0
C49 C 0.17382 0.80807 0.71667 0.0
O50 O 0.17537 0.81874 0.64132 0.0
O51 O 0.92092 0.80533 0.71957 0.0
C52 C 0.47449 0.00233 0.76437 0.0
O53 O 0.45871 0.92449 0.77113 0.0
O54 O 0.26505 0.91784 0.73634 0.0
Zn55 Zn 0.30237 0.02022 0.79457 0.0
O56 O 0.29659 0.0098 0.91157 0.0
C57 C 0.15469 0.09342 0.7503 0.0
O58 O 0.13248 0.01725 0.75482 0.0
O59 O 0.41698 0.05334 0.76893 0.0
C60 C 0.23075 0.0177 0.94929 0.0
O61 O 0.16191 0.02699 0.91224 0.0
C62 C 0.22527 0.8595 0.76663 0.0
O63 O 0.21462 0.85792 0.84199 0.0
O64 O 0.228 0.11242 0.76375 0.0
C65 C 0.031 0.47449 0.26437 0.0
O66 O 0.10884 0.4587 0.27113 0.0
O67 O 0.11548 0.26504 0.23634 0.0
Zn68 Zn 0.01311 0.30236 0.29457 0.0
O69 O 0.02353 0.29659 0.41157 0.0
C70 C 0.93991 0.15468 0.25031 0.0
O71 O 0.01608 0.13247 0.25483 0.0
O72 O 0.97998 0.41697 0.26893 0.0
C73 C 0.01562 0.23075 0.4493 0.0
O74 O 0.00633 0.16191 0.41225 0.0
C75 C 0.17382 0.22526 0.26664 0.0
O76 O 0.1754 0.21461 0.34199 0.0
O77 O 0.92091 0.228 0.26375 0.0
C78 C 0.55884 0.03101 0.76437 0.0
O79 O 0.57462 0.10885 0.7711 0.0
O80 O 0.76828 0.11549 0.73635 0.0
Zn81 Zn 0.73096 0.01311 0.79457 0.0
O82 O 0.73675 0.02353 0.91157 0.0
C83 C 0.87864 0.93991 0.7503 0.0
O84 O 0.90085 0.01608 0.75483 0.0
O85 O 0.61636 0.97999 0.76894 0.0
C86 C 0.80259 0.01563 0.9493 0.0
O87 O 0.87143 0.00633 0.91225 0.0
C88 C 0.80806 0.17383 0.76664 0.0
O89 O 0.81871 0.17541 0.842 0.0
O90 O 0.80533 0.92091 0.76375 0.0
C91 C 0.00232 0.55884 0.26437 0.0
O92 O 0.92447 0.57461 0.2711 0.0
O93 O 0.91783 0.76828 0.23634 0.0
Zn94 Zn 0.02021 0.73096 0.29457 0.0
O95 O 0.0098 0.73674 0.41157 0.0
C96 C 0.09341 0.87863 0.25029 0.0
O97 O 0.01724 0.90084 0.25482 0.0
O98 O 0.05333 0.61635 0.26894 0.0
C99 C 0.0177 0.80259 0.44929 0.0
O100 O 0.02699 0.87143 0.41224 0.0
C101 C 0.85949 0.80805 0.26664 0.0
O102 O 0.85791 0.8187 0.34199 0.0
O103 O 0.11241 0.80532 0.26374 0.0
loop_
_geom_bond_atom_site_label_1
_geom_bond_atom_site_label_2
_geom_bond_distance
_geom_bond_site_symmetry_2
_ccdc_geom_bond_type
C0 O1 1.160 . S
C0 O7 1.185 . S
O1 C0 1.160 . S
O2 Zn3 1.899 . S
O2 C10 1.284 . S
Zn3 O2 1.899 . S
Zn3 O4 2.032 . S
Zn3 O7 2.086 . S
Zn3 O12 1.977 1_545 S
O4 Zn3 2.032 . S
O4 C8 1.278 . S
C5 O6 1.203 . S
C5 O12 1.267 . S
O6 C5 1.203 . S
O7 C0 1.185 . S
O7 Zn3 2.086 . S
C8 O4 1.278 . S
C8 O9 1.211 1_545 S
O9 C8 1.211 1_565 S
C10 O2 1.284 . S
C10 O11 1.273 . S
O11 C10 1.273 . S
O12 Zn3 1.977 1_565 S
O12 C5 1.267 . S
C13 O14 1.160 1_455 S
C13 O20 1.185 . S
O14 C13 1.160 1_655 S
O15 Zn16 1.899 1_655 S
O15 C23 1.284 . S
Zn16 O15 1.899 1_455 S
Zn16 O17 2.032 . S
Zn16 O20 2.086 . S
Zn16 O25 1.977 . S
O17 Zn16 2.032 . S
O17 C21 1.278 . S
C18 O19 1.203 . S
C18 O25 1.267 . S
O19 C18 1.203 . S
O20 C13 1.185 . S
O20 Zn16 2.086 . S
C21 O17 1.278 . S
C21 O22 1.211 . S
O22 C21 1.211 . S
C23 O15 1.284 . S
C23 O24 1.273 . S
O24 C23 1.273 . S
O25 Zn16 1.977 . S
O25 C18 1.267 . S
C26 O27 1.160 1_545 S
C26 O33 1.185 . S
O27 C26 1.160 1_565 S
O28 Zn29 1.899 1_565 S
O28 C36 1.284 . S
Zn29 O28 1.899 1_545 S
Zn29 O30 2.032 . S
Zn29 O33 2.086 . S
Zn29 O38 1.977 . S
O30 Zn29 2.032 . S
O30 C34 1.278 . S
C31 O32 1.203 . S
C31 O38 1.267 . S
O32 C31 1.203 . S
O33 C26 1.185 . S
O33 Zn29 2.086 . S
C34 O30 1.278 . S
C34 O35 1.211 . S
O35 C34 1.211 . S
C36 O28 1.284 . S
C36 O37 1.273 . S
O37 C36 1.273 . S
O38 Zn29 1.977 . S
O38 C31 1.267 . S
C39 O40 1.160 . S
C39 O46 1.185 . S
O40 C39 1.160 . S
O41 Zn42 1.899 . S
O41 C49 1.284 . S
Zn42 O41 1.899 . S
Zn42 O43 2.032 . S
Zn42 O46 2.086 . S
Zn42 O51 1.977 1_455 S
O43 Zn42 2.032 . S
O43 C47 1.278 . S
C44 O45 1.203 . S
C44 O51 1.267 . S
O45 C44 1.203 . S
O46 C39 1.185 . S
O46 Zn42 2.086 . S
C47 O43 1.278 . S
C47 O48 1.211 1_455 S
O48 C47 1.211 1_655 S
C49 O41 1.284 . S
C49 O50 1.273 . S
O50 C49 1.273 . S
O51 Zn42 1.977 1_655 S
O51 C44 1.267 . S
C52 O53 1.160 1_545 S
C52 O59 1.185 . S
O53 C52 1.160 1_565 S
O54 Zn55 1.899 1_565 S
O54 C62 1.284 . S
Zn55 O54 1.899 1_545 S
Zn55 O56 2.032 . S
Zn55 O59 2.086 . S
Zn55 O64 1.977 . S
O56 Zn55 2.032 . S
O56 C60 1.278 . S
C57 O58 1.203 . S
C57 O64 1.267 . S
O58 C57 1.203 . S
O59 C52 1.185 . S
O59 Zn55 2.086 . S
C60 O56 1.278 . S
C60 O61 1.211 . S
O61 C60 1.211 . S
C62 O54 1.284 . S
C62 O63 1.273 . S
O63 C62 1.273 . S
O64 Zn55 1.977 . S
O64 C57 1.267 . S
C65 O66 1.160 . S
C65 O72 1.185 . S
O66 C65 1.160 . S
O67 Zn68 1.899 . S
O67 C75 1.284 . S
Zn68 O67 1.899 . S
Zn68 O69 2.032 . S
Zn68 O72 2.086 . S
Zn68 O77 1.977 1_455 S
O69 Zn68 2.032 . S
O69 C73 1.278 . S
C70 O71 1.203 . S
C70 O77 1.267 . S
O71 C70 1.203 . S
O72 C65 1.185 . S
O72 Zn68 2.086 . S
C73 O69 1.278 . S
C73 O74 1.211 1_455 S
O74 C73 1.211 1_655 S
C75 O67 1.284 . S
C75 O76 1.273 . S
O76 C75 1.273 . S
O77 Zn68 1.977 1_655 S
O77 C70 1.267 . S
C78 O79 1.160 . S
C78 O85 1.185 . S
O79 C78 1.160 . S
O80 Zn81 1.899 . S
O80 C88 1.284 . S
Zn81 O80 1.899 . S
Zn81 O82 2.032 . S
Zn81 O85 2.086 . S
Zn81 O90 1.977 1_545 S
O82 Zn81 2.032 . S
O82 C86 1.278 . S
C83 O84 1.203 . S
C83 O90 1.267 . S
O84 C83 1.203 . S
O85 C78 1.185 . S
O85 Zn81 2.086 . S
C86 O82 1.278 . S
C86 O87 1.211 1_545 S
O87 C86 1.211 1_565 S
C88 O80 1.284 . S
C88 O89 1.273 . S
O89 C88 1.273 . S
O90 Zn81 1.977 1_565 S
O90 C83 1.267 . S
C91 O92 1.160 1_455 S
C91 O98 1.185 . S
O92 C91 1.160 1_655 S
O93 Zn94 1.899 1_655 S
O93 C101 1.284 . S
Zn94 O93 1.899 1_455 S
Zn94 O95 2.032 . S
Zn94 O98 2.086 . S
Zn94 O103 1.977 . S
O95 Zn94 2.032 . S
O95 C99 1.278 . S
C96 O97 1.203 . S
C96 O103 1.267 . S
O97 C96 1.203 . S
O98 C91 1.185 . S
O98 Zn94 2.086 . S
C99 O95 1.278 . S
C99 O100 1.211 . S
O100 C99 1.211 . S
C101 O93 1.284 . S
C101 O102 1.273 . S
O102 C101 1.273 . S
O103 Zn94 1.977 . S
O103 C96 1.267 . S
C8 C60 1.468 1_554 S
C21 C73 1.468 . S
C86 C34 1.468 1_556 S
C99 C47 1.468 . S
C0 C26 1.525 . S
C13 C39 1.525 . S
C78 C52 1.525 . S
C65 C91 1.525 . S
C75 C10 1.321 . S
C23 C88 1.321 . S
C101 C36 1.321 . S
C49 C62 1.321 . S
C83 C44 1.102 . S
C5 C96 1.102 . S
C18 C57 1.102 . S
C70 C31 1.102 . S
