# Generated by pormake.
# Topology dft, (4)-cn, num edge types: 1
# Building blocks:
#     Node 0, Type 0, BuildingBlock: NAHDIM_clean_sbu_0, # of connection points: 4
#     Node 1, Type 0, BuildingBlock: NAHDIM_clean_sbu_0, # of connection points: 4
#     Node 2, Type 0, BuildingBlock: NAHDIM_clean_sbu_0, # of connection points: 4
#     Node 3, Type 0, BuildingBlock: NAHDIM_clean_sbu_0, # of connection points: 4
#     Node 4, Type 0, BuildingBlock: NAHDIM_clean_sbu_0, # of connection points: 4
#     Node 5, Type 0, BuildingBlock: NAHDIM_clean_sbu_0, # of connection points: 4
#     Node 6, Type 0, BuildingBlock: NAHDIM_clean_sbu_0, # of connection points: 4
#     Node 7, Type 0, BuildingBlock: NAHDIM_clean_sbu_0, # of connection points: 4
#     Edge 8, Type (0, 0), BuildingBlock: KIFKEQ_clean_linker_1, # of connection points: 2
#     Edge 9, Type (0, 0), BuildingBlock: KIFKEQ_clean_linker_1, # of connection points: 2
#     Edge 10, Type (0, 0), BuildingBlock: KIFKEQ_clean_linker_1, # of connection points: 2
#     Edge 11, Type (0, 0), BuildingBlock: KIFKEQ_clean_linker_1, # of connection points: 2
#     Edge 12, Type (0, 0), BuildingBlock: KIFKEQ_clean_linker_1, # of connection points: 2
#     Edge 13, Type (0, 0), BuildingBlock: KIFKEQ_clean_linker_1, # of connection points: 2
#     Edge 14, Type (0, 0), BuildingBlock: KIFKEQ_clean_linker_1, # of connection points: 2
#     Edge 15, Type (0, 0), BuildingBlock: KIFKEQ_clean_linker_1, # of connection points: 2
#     Edge 16, Type (0, 0), BuildingBlock: KIFKEQ_clean_linker_1, # of connection points: 2
#     Edge 17, Type (0, 0), BuildingBlock: KIFKEQ_clean_linker_1, # of connection points: 2
#     Edge 18, Type (0, 0), BuildingBlock: KIFKEQ_clean_linker_1, # of connection points: 2
#     Edge 19, Type (0, 0), BuildingBlock: KIFKEQ_clean_linker_1, # of connection points: 2
#     Edge 20, Type (0, 0), BuildingBlock: KIFKEQ_clean_linker_1, # of connection points: 2
#     Edge 21, Type (0, 0), BuildingBlock: KIFKEQ_clean_linker_1, # of connection points: 2
#     Edge 22, Type (0, 0), BuildingBlock: KIFKEQ_clean_linker_1, # of connection points: 2
#     Edge 23, Type (0, 0), BuildingBlock: KIFKEQ_clean_linker_1, # of connection points: 2
# Relax obj value: 0.139
# Max RMSD: 0.138
# Mean RMSD: 0.138
data_MOF--net-dft--node1-NAHDIM_clean_sbu_0--edge1-KIFKEQ_clean_linker_1
_symmetry_space_group_name_H-M    P1
_symmetry_Int_Tables_number       1
_symmetry_cell_setting            triclinic
loop_
_symmetry_equiv_pos_as_xyz
'x, y, z'
_cell_length_a     35.851757
_cell_length_b     35.902458
_cell_length_c     39.480339
_cell_angle_alpha  90.231243
_cell_angle_beta   89.904167
_cell_angle_gamma 90.112755
loop_
_atom_site_label
_atom_site_type_symbol
_atom_site_fract_x
_atom_site_fract_y
_atom_site_fract_z
_atom_type_partial_charge
C0 C 0.38564 0.03667 0.22101 0.0
O1 O 0.37364 0.06737 0.20673 0.0
O2 O 0.28555 0.06199 0.23174 0.0
Zn3 Zn 0.30943 0.01584 0.21247 0.0
O4 O 0.30785 0.01635 0.1616 0.0
C5 C 0.28289 0.94057 0.21262 0.0
O6 O 0.30642 0.93745 0.18722 0.0
O7 O 0.36256 0.01069 0.22712 0.0
C8 C 0.27666 0.01564 0.14638 0.0
O9 O 0.24577 0.01599 0.16434 0.0
C10 C 0.28145 0.09173 0.21479 0.0
O11 O 0.2948 0.09347 0.18384 0.0
O12 O 0.28009 0.97158 0.22802 0.0
C13 C 0.9719 0.36397 0.70091 0.0
O14 O 0.94208 0.35249 0.6846 0.0
O15 O 0.94531 0.26336 0.71481 0.0
Zn16 Zn 0.99102 0.28709 0.69431 0.0
O17 O 0.98768 0.28497 0.64363 0.0
C18 C 0.0388 0.24169 0.73598 0.0
O19 O 0.01109 0.24439 0.75766 0.0
O20 O -0.00327 0.34041 0.70885 0.0
C21 C 0.01291 0.30023 0.62581 0.0
O22 O 0.04045 0.31768 0.64106 0.0
C23 C 0.91525 0.25952 0.69811 0.0
O24 O 0.91338 0.27273 0.66719 0.0
O25 O 0.03645 0.25815 0.70766 0.0
C26 C 0.65715 0.98343 0.19702 0.0
O27 O 0.66651 0.95165 0.18278 0.0
O28 O 0.75669 0.95831 0.19292 0.0
Zn29 Zn 0.73034 0.00359 0.17518 0.0
O30 O 0.72246 -0.00012 0.12489 0.0
C31 C 0.7733 0.05481 0.21462 0.0
O32 O 0.76357 0.03192 0.23899 0.0
O33 O 0.68068 0.00989 0.19759 0.0
C34 C 0.7242 0.96955 0.10826 0.0
O35 O 0.73174 0.93843 0.12421 0.0
C36 C 0.79125 0.95507 0.1864 0.0
O37 O 0.80772 0.98073 0.16801 0.0
O38 O 0.76181 0.04857 0.18473 0.0
C39 C 0.02231 0.63873 0.70099 0.0
O40 O 0.05381 0.65024 0.68753 0.0
O41 O 0.04478 0.74062 0.71362 0.0
Zn42 Zn 0.00195 0.71487 0.6903 0.0
O43 O 0.00773 0.71568 0.63972 0.0
C44 C 0.94936 0.75224 0.7326 0.0
O45 O 0.97212 0.74029 0.75623 0.0
O46 O -0.0039 0.66197 0.70556 0.0
C47 C 0.01329 0.74604 0.62406 0.0
O48 O 0.01672 0.77713 0.64145 0.0
C49 C 0.07715 0.74594 0.70139 0.0
O50 O 0.08552 0.73205 0.6715 0.0
O51 O 0.95589 0.74374 0.70191 0.0
C52 C 0.35097 0.99056 0.7817 0.0
O53 O 0.33229 0.96154 0.77046 0.0
O54 O 0.25955 0.959 0.80391 0.0
Zn55 Zn 0.28429 0.00562 0.82229 0.0
O56 O 0.28849 0.00385 0.87318 0.0
C57 C 0.24468 0.05815 0.7805 0.0
O58 O 0.25737 0.03715 0.75572 0.0
O59 O 0.33576 0.01239 0.80303 0.0
C60 C 0.26379 0.98917 0.89204 0.0
O61 O 0.23471 0.97302 0.8781 0.0
C62 C 0.22422 0.958 0.80117 0.0
O63 O 0.2047 0.98716 0.81068 0.0
O64 O 0.25324 0.05025 0.81083 0.0
C65 C 0.03532 0.37241 0.28492 0.0
O66 O 0.06684 0.36043 0.29779 0.0
O67 O 0.05982 0.27412 0.28436 0.0
Zn68 Zn 0.01321 0.29884 0.30194 0.0
O69 O 0.015 0.30318 0.35261 0.0
C70 C 0.96724 0.2517 0.26055 0.0
O71 O -0.00558 0.25682 0.23868 0.0
O72 O 0.00783 0.35017 0.28294 0.0
C73 C 0.00861 0.27512 0.37124 0.0
O74 O 0.00112 0.24285 0.35696 0.0
C75 C 0.08917 0.27063 0.30207 0.0
O76 O 0.08992 0.28446 0.33292 0.0
O77 O 0.96892 0.26765 0.28927 0.0
C78 C 0.62724 0.02025 0.76186 0.0
O79 O 0.64259 0.05345 0.7602 0.0
O80 O 0.72385 0.04537 0.76799 0.0
Zn81 Zn 0.69991 -0.00099 0.78689 0.0
O82 O 0.70066 0.00078 0.83775 0.0
C83 C 0.76335 0.95385 0.78569 0.0
O84 O 0.774 0.98094 0.80599 0.0
O85 O 0.64681 -0.00715 0.77159 0.0
C86 C 0.69068 0.97233 0.85452 0.0
O87 O 0.67892 0.94261 0.83816 0.0
C88 C 0.72943 0.07416 0.78616 0.0
O89 O 0.71778 0.07445 0.81771 0.0
O90 O 0.73089 0.95508 0.77286 0.0
C91 C -0.0018 0.64745 0.28738 0.0
O92 O 0.96797 0.66034 0.30216 0.0
O93 O 0.98264 0.75001 0.27842 0.0
Zn94 Zn 0.02378 0.72134 0.30093 0.0
O95 O 0.01775 0.72039 0.3515 0.0
C96 C 0.08286 0.75223 0.26069 0.0
O97 O 0.06253 0.73931 0.23558 0.0
O98 O 0.02592 0.66904 0.28336 0.0
C99 C 0.01545 0.75053 0.36833 0.0
O100 O 0.01545 0.78244 0.35214 0.0
C101 C 0.95088 0.75633 0.29155 0.0
O102 O 0.94295 0.74259 0.3215 0.0
O103 O 0.07194 0.74718 0.29093 0.0
H104 H 0.2151 0.01839 0.10579 0.0
H105 H 0.33497 0.00628 0.10251 0.0
H106 H 0.21258 0.01212 0.04437 0.0
H107 H 0.33234 -0.001 0.04121 0.0
H108 H 0.31684 0.02611 0.92893 0.0
H109 H 0.31992 0.03339 0.99022 0.0
H110 H 0.22091 0.96555 0.00086 0.0
H111 H 0.21726 0.95908 0.93952 0.0
C112 C 0.2409 0.0143 0.09198 0.0
C113 C 0.27522 0.01283 0.10903 0.0
C114 C 0.23944 0.01044 0.05678 0.0
C115 C 0.27224 0.00487 0.03786 0.0
C116 C 0.3066 0.00371 0.05494 0.0
C117 C 0.30808 0.00772 0.09012 0.0
C118 C 0.29579 0.01264 0.94434 0.0
C119 C 0.26675 -0.00793 0.92933 0.0
C120 C 0.29765 0.01669 0.97951 0.0
C121 C 0.27059 0.00015 0.00047 0.0
C122 C 0.24184 0.97918 0.98544 0.0
C123 C 0.23991 0.97524 0.95027 0.0
H124 H 0.96106 0.26439 0.58677 0.0
H125 H 0.06237 0.3295 0.58034 0.0
H126 H 0.95994 0.2587 0.52525 0.0
H127 H 0.0615 0.32327 0.51883 0.0
H128 H 0.0247 0.33744 0.40844 0.0
H129 H 0.02518 0.34396 0.4699 0.0
H130 H -0.00464 0.22788 0.47994 0.0
H131 H -0.00574 0.22143 0.41844 0.0
C132 C 0.98312 0.27746 0.57225 0.0
C133 C 0.01183 0.29738 0.58845 0.0
C134 C 0.98258 0.27399 0.53701 0.0
C135 C 0.01069 0.29043 0.51719 0.0
C136 C 0.03923 0.31061 0.53338 0.0
C137 C 0.03982 0.31402 0.56864 0.0
C138 C 0.01824 0.31329 0.42374 0.0
C139 C 0.0094 0.27891 0.40855 0.0
C140 C 0.01872 0.317 0.45896 0.0
C141 C 0.0103 0.28645 0.47977 0.0
C142 C 0.00151 0.25206 0.46458 0.0
C143 C 0.00111 0.24832 0.42934 0.0
H144 H 0.71884 0.02711 0.89536 0.0
H145 H 0.67008 0.91696 0.89812 0.0
H146 H 0.72637 0.0259 0.95658 0.0
H147 H 0.67674 0.91616 0.95956 0.0
H148 H 0.73353 0.91177 0.06367 0.0
H149 H 0.72461 0.91248 0.00245 0.0
H150 H 0.69076 0.0278 0.00817 0.0
H151 H 0.70064 0.02739 0.06911 0.0
C152 C 0.70942 0.00275 0.90906 0.0
C153 C 0.69388 0.97212 0.89186 0.0
C154 C 0.71357 0.00214 0.94421 0.0
C155 C 0.70214 0.97094 0.96301 0.0
C156 C 0.6863 0.94042 0.94581 0.0
C157 C 0.68226 0.94098 0.91061 0.0
C158 C 0.72414 0.93725 0.05185 0.0
C159 C 0.71795 0.96955 0.07124 0.0
C160 C 0.71882 0.9376 0.01678 0.0
C161 C 0.70703 0.97023 0.00038 0.0
C162 C 0.70045 0.00238 0.01989 0.0
C163 C 0.70593 0.00208 0.05489 0.0
H164 H -0.00156 0.80759 0.41163 0.0
H165 H 0.03018 0.69159 0.40958 0.0
H166 H -0.00242 0.80635 0.47332 0.0
H167 H 0.03089 0.69067 0.47115 0.0
H168 H -0.00761 0.69049 0.58068 0.0
H169 H -0.00825 0.69184 0.51913 0.0
H170 H 0.03728 0.80345 0.52115 0.0
H171 H 0.0364 0.80258 0.58286 0.0
C172 C 0.00542 0.78188 0.42437 0.0
C173 C 0.01429 0.74968 0.40574 0.0
C174 C 0.00522 0.78122 0.45977 0.0
C175 C 0.01428 0.74844 0.47734 0.0
C176 C 0.02315 0.71625 0.45857 0.0
C177 C 0.02293 0.71681 0.42321 0.0
C178 C 0.00234 0.71529 0.56798 0.0
C179 C 0.0144 0.74645 0.58663 0.0
C180 C 0.00216 0.71601 0.53263 0.0
C181 C 0.01448 0.74775 0.51504 0.0
C182 C 0.02695 0.77878 0.53379 0.0
C183 C 0.02672 0.7782 0.56919 0.0
H184 H 0.44283 0.08401 0.20564 0.0
H185 H 0.4198 0.97517 0.24727 0.0
H186 H 0.50928 0.07057 0.20649 0.0
H187 H 0.48648 0.96204 0.24879 0.0
H188 H 0.59784 0.9358 0.19266 0.0
H189 H 0.5328 0.94936 0.20524 0.0
H190 H 0.56395 0.05898 0.24103 0.0
H191 H 0.62902 0.04572 0.22774 0.0
C192 C 0.45197 0.05748 0.21556 0.0
C193 C 0.42601 0.0305 0.22597 0.0
C194 C 0.49013 0.04985 0.21626 0.0
C195 C 0.50315 0.0151 0.22747 0.0
C196 C 0.47726 0.98883 0.2395 0.0
C197 C 0.43909 -0.00355 0.23878 0.0
C198 C 0.59092 0.96261 0.20363 0.0
C199 C 0.61853 0.98985 0.20878 0.0
C200 C 0.55362 0.97032 0.21106 0.0
C201 C 0.54317 0.00538 0.2239 0.0
C202 C 0.57106 0.03193 0.23064 0.0
C203 C 0.60834 0.02426 0.22315 0.0
H204 H 0.9251 0.42151 0.68602 0.0
H205 H 0.03289 0.39741 0.72956 0.0
H206 H 0.93773 0.48793 0.69112 0.0
H207 H 0.04524 0.464 0.73516 0.0
H208 H 0.07089 0.58121 0.69068 0.0
H209 H 0.05817 0.51479 0.69562 0.0
H210 H 0.94683 0.53905 0.73134 0.0
H211 H 0.95929 0.60553 0.72585 0.0
C212 C 0.95128 0.43036 0.69711 0.0
C213 C 0.97809 0.40416 0.70713 0.0
C214 C 0.95843 0.46847 0.70023 0.0
C215 C -0.00743 0.48123 0.71342 0.0
C216 C 0.01889 0.45502 0.72449 0.0
C217 C 0.0117 0.41688 0.72143 0.0
C218 C 0.04383 0.57242 0.69993 0.0
C219 C 0.016 0.59866 0.70754 0.0
C220 C 0.03661 0.53433 0.70297 0.0
C221 C 0.00139 0.52165 0.71366 0.0
C222 C 0.97405 0.54794 0.72253 0.0
C223 C 0.98127 0.58604 0.71954 0.0
H224 H 0.57637 0.07358 0.74467 0.0
H225 H 0.58625 0.95624 0.76699 0.0
H226 H 0.50867 0.06717 0.74262 0.0
H227 H 0.51867 0.95006 0.76554 0.0
H228 H 0.39544 0.94508 0.74309 0.0
H229 H 0.4619 0.95275 0.73113 0.0
H230 H 0.46184 0.05681 0.78648 0.0
H231 H 0.39563 0.04953 0.79794 0.0
C232 C 0.56416 0.04635 0.74878 0.0
C233 C 0.58668 0.01552 0.75641 0.0
C234 C 0.52536 0.04273 0.74774 0.0
C235 C 0.50829 0.0082 0.75425 0.0
C236 C 0.53093 0.97698 0.76012 0.0
C237 C 0.56971 0.9806 0.76118 0.0
C238 C 0.40954 0.96981 0.75233 0.0
C239 C 0.39032 -0.00347 0.77173 0.0
C240 C 0.44762 0.97412 0.74559 0.0
C241 C 0.46716 0.00532 0.75796 0.0
C242 C 0.44756 0.03268 0.77622 0.0
C243 C 0.40961 0.02833 0.78304 0.0
H244 H 0.973 0.40691 0.26041 0.0
H245 H 0.08671 0.42811 0.29131 0.0
H246 H 0.96304 0.47365 0.25359 0.0
H247 H 0.0765 0.49465 0.28528 0.0
H248 H 0.056 0.61244 0.25528 0.0
H249 H 0.0645 0.54568 0.24707 0.0
H250 H 0.95688 0.52532 0.29292 0.0
H251 H 0.94797 0.59201 0.30037 0.0
C252 C -0.00402 0.42576 0.26542 0.0
C253 C 0.03054 0.41225 0.27676 0.0
C254 C 0.9902 0.46399 0.26167 0.0
C255 C 0.01885 0.48948 0.26917 0.0
C256 C 0.05393 0.47579 0.27893 0.0
C257 C 0.05972 0.4376 0.28263 0.0
C258 C 0.03393 0.59373 0.26319 0.0
C259 C 0.00149 0.60748 0.27885 0.0
C260 C 0.03889 0.55548 0.2586 0.0
C261 C 0.01155 0.53016 0.26964 0.0
C262 C 0.97834 0.54405 0.28381 0.0
C263 C 0.97333 0.58232 0.2883 0.0
H264 H 0.15288 0.25112 0.33556 0.0
H265 H 0.09788 0.24145 0.23856 0.0
H266 H 0.20363 0.21196 0.31474 0.0
H267 H 0.14837 0.20208 0.21797 0.0
H268 H 0.25839 0.15469 0.18222 0.0
H269 H 0.21553 0.20216 0.20339 0.0
H270 H 0.20932 0.14534 0.29946 0.0
H271 H 0.25239 0.09815 0.27855 0.0
C272 C 0.15174 0.2409 0.30974 0.0
C273 C 0.12123 0.24921 0.28878 0.0
C274 C 0.18073 0.21836 0.29788 0.0
C275 C 0.17993 0.20387 0.26477 0.0
C276 C 0.15 0.21316 0.24349 0.0
C277 C 0.12094 0.23552 0.25538 0.0
C278 C 0.24826 0.15258 0.208 0.0
C279 C 0.25858 0.1225 0.22862 0.0
C280 C 0.22357 0.17967 0.22004 0.0
C281 C 0.2089 0.17735 0.253 0.0
C282 C 0.2204 0.14809 0.27405 0.0
C283 C 0.24492 0.12092 0.26198 0.0
H284 H 0.85004 0.24009 0.66681 0.0
H285 H 0.90984 0.22878 0.76119 0.0
H286 H 0.80107 0.19917 0.68826 0.0
H287 H 0.86109 0.18759 0.78239 0.0
H288 H 0.75364 0.13598 0.82039 0.0
H289 H 0.79488 0.18499 0.79957 0.0
H290 H 0.79735 0.13208 0.70115 0.0
H291 H 0.75586 0.08334 0.72175 0.0
C292 C 0.85261 0.22916 0.69222 0.0
C293 C 0.88398 0.23749 0.7122 0.0
C294 C 0.82463 0.20558 0.70442 0.0
C295 C 0.82733 0.19001 0.73692 0.0
C296 C 0.85802 0.19943 0.75736 0.0
C297 C 0.88607 0.22287 0.74512 0.0
C298 C 0.76264 0.13502 0.7942 0.0
C299 C 0.75166 0.10561 0.77278 0.0
C300 C 0.78641 0.163 0.78235 0.0
C301 C 0.7995 0.16229 0.74879 0.0
C302 C 0.78745 0.13361 0.72705 0.0
C303 C 0.76384 0.10555 0.73893 0.0
H304 H 0.8864 0.78631 0.31683 0.0
H305 H 0.95585 0.78353 0.22728 0.0
H306 H 0.84637 0.83246 0.29011 0.0
H307 H 0.91531 0.82877 0.20026 0.0
H308 H 0.86631 0.94423 0.18212 0.0
H309 H 0.9027 0.89396 0.20636 0.0
H310 H 0.80182 0.84379 0.24542 0.0
H311 H 0.76537 0.89485 0.22185 0.0
C312 C 0.89281 0.79512 0.29127 0.0
C313 C 0.92449 0.78152 0.2743 0.0
C314 C 0.86975 0.82146 0.27588 0.0
C315 C 0.87782 0.83458 0.24314 0.0
C316 C 0.90873 0.81985 0.22575 0.0
C317 C 0.93186 0.79373 0.24119 0.0
C318 C 0.85182 0.92242 0.19574 0.0
C319 C 0.81296 0.92358 0.2001 0.0
C320 C 0.87268 0.89342 0.20948 0.0
C321 C 0.85518 0.86472 0.22775 0.0
C322 C 0.81621 0.86567 0.23182 0.0
C323 C 0.79532 0.89483 0.21817 0.0
H324 H 0.06844 0.7778 0.76371 0.0
H325 H 0.14429 0.77284 0.67858 0.0
H326 H 0.10661 0.8262 0.78956 0.0
H327 H 0.18228 0.82186 0.7044 0.0
H328 H 0.25547 0.89416 0.77523 0.0
H329 H 0.22285 0.83918 0.75328 0.0
H330 H 0.11712 0.89165 0.77501 0.0
H331 H 0.14939 0.94604 0.79714 0.0
C332 C 0.09345 0.78677 0.75062 0.0
C333 C 0.10308 0.77174 0.71887 0.0
C334 C 0.11522 0.81467 0.76539 0.0
C335 C 0.14713 0.82824 0.74878 0.0
C336 C 0.1579 0.81189 0.71787 0.0
C337 C 0.13606 0.78389 0.70303 0.0
C338 C 0.22526 0.89383 0.77541 0.0
C339 C 0.20502 0.92445 0.78798 0.0
C340 C 0.20662 0.86243 0.76273 0.0
C341 C 0.16743 0.86098 0.76264 0.0
C342 C 0.14733 0.8916 0.77528 0.0
C343 C 0.16587 0.92294 0.78775 0.0
H344 H 0.75082 0.89354 0.74444 0.0
H345 H 0.83332 0.94306 0.81054 0.0
H346 H 0.79323 0.84187 0.73269 0.0
H347 H 0.87571 0.89192 0.79838 0.0
H348 H 0.93008 0.77879 0.79515 0.0
H349 H 0.88284 0.82527 0.80869 0.0
H350 H 0.85256 0.83125 0.70298 0.0
H351 H 0.89934 0.78431 0.68946 0.0
C352 C 0.77798 0.89343 0.75642 0.0
C353 C 0.78873 0.92242 0.77839 0.0
C354 C 0.80229 0.86392 0.7496 0.0
C355 C 0.83776 0.86276 0.7647 0.0
C356 C 0.84835 0.89168 0.78677 0.0
C357 C 0.82413 0.92116 0.79353 0.0
C358 C 0.91311 0.78973 0.77483 0.0
C359 C 0.91864 0.77803 0.74121 0.0
C360 C 0.88619 0.81652 0.78257 0.0
C361 C 0.86419 0.83216 0.75686 0.0
C362 C 0.86885 0.81952 0.72339 0.0
C363 C 0.89581 0.79275 0.71564 0.0
H364 H 0.27604 0.87312 0.18065 0.0
H365 H 0.23256 0.93775 0.26443 0.0
H366 H 0.23123 0.82368 0.19305 0.0
H367 H 0.1876 0.88873 0.2764 0.0
H368 H 0.13044 0.78275 0.30707 0.0
H369 H 0.18262 0.82464 0.29647 0.0
H370 H 0.16307 0.81583 0.18879 0.0
H371 H 0.11119 0.77335 0.19929 0.0
C372 C 0.25714 0.87668 0.20184 0.0
C373 C 0.25776 0.90941 0.22148 0.0
C374 C 0.23136 0.84845 0.2088 0.0
C375 C 0.20586 0.85235 0.23565 0.0
C376 C 0.20719 0.88467 0.25581 0.0
C377 C 0.23283 0.91288 0.2488 0.0
C378 C 0.13747 0.78943 0.28109 0.0
C379 C 0.11645 0.77499 0.25401 0.0
C380 C 0.16727 0.81356 0.27506 0.0
C381 C 0.17674 0.82378 0.24183 0.0
C382 C 0.15665 0.80823 0.21467 0.0
C383 C 0.12679 0.78406 0.2207 0.0
H384 H 0.10134 0.23173 0.69731 0.0
H385 H 0.05009 0.19797 0.79152 0.0
H386 H 0.15374 0.19042 0.70833 0.0
H387 H 0.10205 0.15606 0.80213 0.0
H388 H 0.21508 0.10755 0.82589 0.0
H389 H 0.16785 0.15477 0.81556 0.0
H390 H 0.16573 0.12402 0.70964 0.0
H391 H 0.21364 0.07734 0.71981 0.0
C392 C 0.10127 0.21555 0.7204 0.0
C393 C 0.07147 0.21805 0.7435 0.0
C394 C 0.13122 0.19172 0.72661 0.0
C395 C 0.13203 0.16983 0.75603 0.0
C396 C 0.10255 0.17288 0.77942 0.0
C397 C 0.07263 0.19677 0.77325 0.0
C398 C 0.20478 0.11106 0.80033 0.0
C399 C 0.21799 0.08855 0.77368 0.0
C400 C 0.17753 0.13799 0.79446 0.0
C401 C 0.16281 0.14299 0.76184 0.0
C402 C 0.17676 0.12115 0.73502 0.0
C403 C 0.2041 0.09426 0.74087 0.0
H404 H 0.95767 0.20934 0.20355 0.0
H405 H 0.90677 0.23543 0.30009 0.0
H406 H 0.90881 0.16368 0.19247 0.0
H407 H 0.85745 0.19034 0.28862 0.0
H408 H 0.80642 0.07339 0.27464 0.0
H409 H 0.85139 0.12304 0.28508 0.0
H410 H 0.8426 0.15746 0.18065 0.0
H411 H 0.79822 0.1073 0.16999 0.0
C412 C 0.93584 0.20564 0.22224 0.0
C413 C 0.93622 0.22587 0.25277 0.0
C414 C 0.9077 0.17961 0.2158 0.0
C415 C 0.87931 0.17329 0.23972 0.0
C416 C 0.87924 0.19416 0.26991 0.0
C417 C 0.9074 0.22015 0.27638 0.0
C418 C 0.81392 0.09166 0.25395 0.0
C419 C 0.79889 0.08627 0.22145 0.0
C420 C 0.83954 0.12027 0.25998 0.0
C421 C 0.85064 0.14415 0.23366 0.0
C422 C 0.83502 0.1392 0.20133 0.0
C423 C 0.80944 0.11057 0.19528 0.0
loop_
_geom_bond_atom_site_label_1
_geom_bond_atom_site_label_2
_geom_bond_distance
_geom_bond_site_symmetry_2
_ccdc_geom_bond_type
C0 O1 1.160 . S
C0 O7 1.185 . S
O1 C0 1.160 . S
O2 Zn3 1.899 . S
O2 C10 1.284 . S
Zn3 O2 1.899 . S
Zn3 O4 2.032 . S
Zn3 O7 2.086 . S
Zn3 O12 1.977 1_545 S
O4 Zn3 2.032 . S
O4 C8 1.278 . S
C5 O6 1.203 . S
C5 O12 1.267 . S
O6 C5 1.203 . S
O7 C0 1.185 . S
O7 Zn3 2.086 . S
C8 O4 1.278 . S
C8 O9 1.211 1_545 S
O9 C8 1.211 1_565 S
C10 O2 1.284 . S
C10 O11 1.273 . S
O11 C10 1.273 . S
O12 Zn3 1.977 1_565 S
O12 C5 1.267 . S
C13 O14 1.160 1_455 S
C13 O20 1.185 . S
O14 C13 1.160 1_655 S
O15 Zn16 1.899 1_655 S
O15 C23 1.284 . S
Zn16 O15 1.899 1_455 S
Zn16 O17 2.032 . S
Zn16 O20 2.086 . S
Zn16 O25 1.977 . S
O17 Zn16 2.032 . S
O17 C21 1.278 . S
C18 O19 1.203 . S
C18 O25 1.267 . S
O19 C18 1.203 . S
O20 C13 1.185 . S
O20 Zn16 2.086 . S
C21 O17 1.278 . S
C21 O22 1.211 . S
O22 C21 1.211 . S
C23 O15 1.284 . S
C23 O24 1.273 . S
O24 C23 1.273 . S
O25 Zn16 1.977 . S
O25 C18 1.267 . S
C26 O27 1.160 1_545 S
C26 O33 1.185 . S
O27 C26 1.160 1_565 S
O28 Zn29 1.899 1_565 S
O28 C36 1.284 . S
Zn29 O28 1.899 1_545 S
Zn29 O30 2.032 . S
Zn29 O33 2.086 . S
Zn29 O38 1.977 . S
O30 Zn29 2.032 . S
O30 C34 1.278 . S
C31 O32 1.203 . S
C31 O38 1.267 . S
O32 C31 1.203 . S
O33 C26 1.185 . S
O33 Zn29 2.086 . S
C34 O30 1.278 . S
C34 O35 1.211 . S
O35 C34 1.211 . S
C36 O28 1.284 . S
C36 O37 1.273 . S
O37 C36 1.273 . S
O38 Zn29 1.977 . S
O38 C31 1.267 . S
C39 O40 1.160 . S
C39 O46 1.185 . S
O40 C39 1.160 . S
O41 Zn42 1.899 . S
O41 C49 1.284 . S
Zn42 O41 1.899 . S
Zn42 O43 2.032 . S
Zn42 O46 2.086 . S
Zn42 O51 1.977 1_455 S
O43 Zn42 2.032 . S
O43 C47 1.278 . S
C44 O45 1.203 . S
C44 O51 1.267 . S
O45 C44 1.203 . S
O46 C39 1.185 . S
O46 Zn42 2.086 . S
C47 O43 1.278 . S
C47 O48 1.211 1_455 S
O48 C47 1.211 1_655 S
C49 O41 1.284 . S
C49 O50 1.273 . S
O50 C49 1.273 . S
O51 Zn42 1.977 1_655 S
O51 C44 1.267 . S
C52 O53 1.160 1_545 S
C52 O59 1.185 . S
O53 C52 1.160 1_565 S
O54 Zn55 1.899 1_565 S
O54 C62 1.284 . S
Zn55 O54 1.899 1_545 S
Zn55 O56 2.032 . S
Zn55 O59 2.086 . S
Zn55 O64 1.977 . S
O56 Zn55 2.032 . S
O56 C60 1.278 . S
C57 O58 1.203 . S
C57 O64 1.267 . S
O58 C57 1.203 . S
O59 C52 1.185 . S
O59 Zn55 2.086 . S
C60 O56 1.278 . S
C60 O61 1.211 . S
O61 C60 1.211 . S
C62 O54 1.284 . S
C62 O63 1.273 . S
O63 C62 1.273 . S
O64 Zn55 1.977 . S
O64 C57 1.267 . S
C65 O66 1.160 . S
C65 O72 1.185 . S
O66 C65 1.160 . S
O67 Zn68 1.899 . S
O67 C75 1.284 . S
Zn68 O67 1.899 . S
Zn68 O69 2.032 . S
Zn68 O72 2.086 . S
Zn68 O77 1.977 1_455 S
O69 Zn68 2.032 . S
O69 C73 1.278 . S
C70 O71 1.203 . S
C70 O77 1.267 . S
O71 C70 1.203 . S
O72 C65 1.185 . S
O72 Zn68 2.086 . S
C73 O69 1.278 . S
C73 O74 1.211 1_455 S
O74 C73 1.211 1_655 S
C75 O67 1.284 . S
C75 O76 1.273 . S
O76 C75 1.273 . S
O77 Zn68 1.977 1_655 S
O77 C70 1.267 . S
C78 O79 1.160 . S
C78 O85 1.185 . S
O79 C78 1.160 . S
O80 Zn81 1.899 . S
O80 C88 1.284 . S
Zn81 O80 1.899 . S
Zn81 O82 2.032 . S
Zn81 O85 2.086 . S
Zn81 O90 1.977 1_545 S
O82 Zn81 2.032 . S
O82 C86 1.278 . S
C83 O84 1.203 . S
C83 O90 1.267 . S
O84 C83 1.203 . S
O85 C78 1.185 . S
O85 Zn81 2.086 . S
C86 O82 1.278 . S
C86 O87 1.211 1_545 S
O87 C86 1.211 1_565 S
C88 O80 1.284 . S
C88 O89 1.273 . S
O89 C88 1.273 . S
O90 Zn81 1.977 1_565 S
O90 C83 1.267 . S
C91 O92 1.160 1_455 S
C91 O98 1.185 . S
O92 C91 1.160 1_655 S
O93 Zn94 1.899 1_655 S
O93 C101 1.284 . S
Zn94 O93 1.899 1_455 S
Zn94 O95 2.032 . S
Zn94 O98 2.086 . S
Zn94 O103 1.977 . S
O95 Zn94 2.032 . S
O95 C99 1.278 . S
C96 O97 1.203 . S
C96 O103 1.267 . S
O97 C96 1.203 . S
O98 C91 1.185 . S
O98 Zn94 2.086 . S
C99 O95 1.278 . S
C99 O100 1.211 . S
O100 C99 1.211 . S
C101 O93 1.284 . S
C101 O102 1.273 . S
O102 C101 1.273 . S
O103 Zn94 1.977 . S
O103 C96 1.267 . S
H104 C112 0.950 . S
H105 C117 0.950 . S
H106 C114 0.950 . S
H107 C116 0.950 . S
H108 C118 0.950 . S
H109 C120 0.950 . S
H110 C122 0.950 . S
H111 C123 0.950 . S
C112 H104 0.950 . S
C112 C113 1.386 . S
C112 C114 1.391 . S
C113 C112 1.386 . S
C113 C117 1.393 1_545 S
C114 H106 0.950 . S
C114 C112 1.391 . S
C114 C115 1.400 . S
C115 C114 1.400 . S
C115 C116 1.398 1_545 S
C115 C121 1.491 1_554 S
C116 H107 0.950 . S
C116 C115 1.398 1_565 S
C116 C117 1.391 . S
C117 H105 0.950 . S
C117 C113 1.393 1_565 S
C117 C116 1.391 . S
C118 H108 0.950 . S
C118 C119 1.386 1_565 S
C118 C120 1.391 . S
C119 C118 1.386 1_545 S
C119 C123 1.393 . S
C120 H109 0.950 . S
C120 C118 1.391 . S
C120 C121 1.400 1_565 S
C121 C115 1.491 1_556 S
C121 C120 1.400 1_545 S
C121 C122 1.398 . S
C122 H110 0.950 . S
C122 C121 1.398 . S
C122 C123 1.391 . S
C123 H111 0.950 . S
C123 C119 1.393 . S
C123 C122 1.391 . S
H124 C132 0.950 . S
H125 C137 0.950 . S
H126 C134 0.950 . S
H127 C136 0.950 . S
H128 C138 0.950 . S
H129 C140 0.950 . S
H130 C142 0.950 . S
H131 C143 0.950 . S
C132 H124 0.950 . S
C132 C133 1.386 1_655 S
C132 C134 1.391 . S
C133 C132 1.386 1_455 S
C133 C137 1.393 . S
C134 H126 0.950 . S
C134 C132 1.391 . S
C134 C135 1.400 1_655 S
C135 C134 1.400 1_455 S
C135 C136 1.398 . S
C135 C141 1.491 . S
C136 H127 0.950 . S
C136 C135 1.398 . S
C136 C137 1.391 . S
C137 H125 0.950 . S
C137 C133 1.393 . S
C137 C136 1.391 . S
C138 H128 0.950 . S
C138 C139 1.386 . S
C138 C140 1.391 . S
C139 C138 1.386 . S
C139 C143 1.393 1_455 S
C140 H129 0.950 . S
C140 C138 1.391 . S
C140 C141 1.400 . S
C141 C135 1.491 . S
C141 C140 1.400 . S
C141 C142 1.398 1_455 S
C142 H130 0.950 . S
C142 C141 1.398 1_655 S
C142 C143 1.391 . S
C143 H131 0.950 . S
C143 C139 1.393 1_655 S
C143 C142 1.391 . S
H144 C152 0.950 . S
H145 C157 0.940 1_565 S
H146 C154 0.950 . S
H147 C156 0.952 . S
H148 C158 0.949 . S
H149 C160 0.945 1_565 S
H150 C162 0.950 . S
H151 C163 0.950 . S
C152 H144 0.950 . S
C152 C153 1.386 . S
C152 C154 1.391 . S
C153 C152 1.386 . S
C153 C157 1.404 . S
C154 H146 0.950 . S
C154 C152 1.391 . S
C154 C155 1.400 . S
C155 C154 1.400 . S
C155 C156 1.396 1_545 S
C155 C161 1.491 1_556 S
C156 H147 0.952 . S
C156 C155 1.396 1_565 S
C156 C157 1.390 1_565 S
C157 H145 0.940 1_545 S
C157 C153 1.404 . S
C157 C156 1.390 1_545 S
C158 H148 0.949 . S
C158 C159 1.386 1_565 S
C158 C160 1.391 1_565 S
C159 C158 1.386 1_545 S
C159 C163 1.393 . S
C160 H149 0.945 1_545 S
C160 C158 1.391 1_545 S
C160 C161 1.405 . S
C161 C155 1.491 1_554 S
C161 C160 1.405 . S
C161 C162 1.398 . S
C162 H150 0.950 . S
C162 C161 1.398 . S
C162 C163 1.391 . S
C163 H151 0.950 . S
C163 C159 1.393 . S
C163 C162 1.391 . S
H164 C172 0.950 . S
H165 C177 0.950 1_655 S
H166 C174 0.950 . S
H167 C176 0.950 1_655 S
H168 C178 0.950 . S
H169 C180 0.950 . S
H170 C182 0.950 . S
H171 C183 0.950 . S
C172 H164 0.950 . S
C172 C173 1.386 . S
C172 C174 1.391 . S
C173 C172 1.386 . S
C173 C177 1.393 . S
C174 H166 0.950 . S
C174 C172 1.391 . S
C174 C175 1.400 . S
C175 C174 1.400 . S
C175 C176 1.398 . S
C175 C181 1.491 . S
C176 H167 0.950 1_455 S
C176 C175 1.398 . S
C176 C177 1.391 . S
C177 H165 0.950 1_455 S
C177 C173 1.393 . S
C177 C176 1.391 . S
C178 H168 0.950 . S
C178 C179 1.386 . S
C178 C180 1.391 . S
C179 C178 1.386 . S
C179 C183 1.393 . S
C180 H169 0.950 . S
C180 C178 1.391 . S
C180 C181 1.400 . S
C181 C175 1.491 . S
C181 C180 1.400 . S
C181 C182 1.398 . S
C182 H170 0.950 . S
C182 C181 1.398 . S
C182 C183 1.391 . S
C183 H171 0.950 . S
C183 C179 1.393 . S
C183 C182 1.391 . S
H184 C192 0.950 . S
H185 C197 0.950 . S
H186 C194 0.950 . S
H187 C196 0.950 . S
H188 C198 0.950 . S
H189 C200 0.950 . S
H190 C202 0.950 . S
H191 C203 0.950 . S
C192 H184 0.950 . S
C192 C193 1.386 . S
C192 C194 1.391 . S
C193 C192 1.386 . S
C193 C197 1.393 1_545 S
C194 H186 0.950 . S
C194 C192 1.391 . S
C194 C195 1.400 . S
C195 C194 1.400 . S
C195 C196 1.398 1_545 S
C195 C201 1.491 . S
C196 H187 0.950 . S
C196 C195 1.398 1_565 S
C196 C197 1.391 . S
C197 H185 0.950 . S
C197 C193 1.393 1_565 S
C197 C196 1.391 . S
C198 H188 0.950 . S
C198 C199 1.386 1_565 S
C198 C200 1.391 . S
C199 C198 1.386 1_545 S
C199 C203 1.393 . S
C200 H189 0.950 . S
C200 C198 1.391 . S
C200 C201 1.400 1_565 S
C201 C195 1.491 . S
C201 C200 1.400 1_545 S
C201 C202 1.398 . S
C202 H190 0.950 . S
C202 C201 1.398 . S
C202 C203 1.391 . S
C203 H191 0.950 . S
C203 C199 1.393 . S
C203 C202 1.391 . S
H204 C212 0.950 . S
H205 C217 0.950 . S
H206 C214 0.950 . S
H207 C216 0.950 . S
H208 C218 0.950 . S
H209 C220 0.950 . S
H210 C222 0.950 . S
H211 C223 0.950 . S
C212 H204 0.950 . S
C212 C213 1.386 1_655 S
C212 C214 1.391 . S
C213 C212 1.386 1_455 S
C213 C217 1.393 . S
C214 H206 0.950 . S
C214 C212 1.391 . S
C214 C215 1.400 1_655 S
C215 C214 1.400 1_455 S
C215 C216 1.398 . S
C215 C221 1.491 . S
C216 H207 0.950 . S
C216 C215 1.398 . S
C216 C217 1.391 . S
C217 H205 0.950 . S
C217 C213 1.393 . S
C217 C216 1.391 . S
C218 H208 0.950 . S
C218 C219 1.386 . S
C218 C220 1.391 . S
C219 C218 1.386 . S
C219 C223 1.393 1_455 S
C220 H209 0.950 . S
C220 C218 1.391 . S
C220 C221 1.400 . S
C221 C215 1.491 . S
C221 C220 1.400 . S
C221 C222 1.398 1_455 S
C222 H210 0.950 . S
C222 C221 1.398 1_655 S
C222 C223 1.391 . S
C223 H211 0.950 . S
C223 C219 1.393 1_655 S
C223 C222 1.391 . S
H224 C232 0.950 . S
H225 C237 0.943 1_565 S
H226 C234 0.950 . S
H227 C236 0.950 . S
H228 C238 0.950 . S
H229 C240 0.950 . S
H230 C242 0.950 . S
H231 C243 0.950 . S
C232 H224 0.950 . S
C232 C233 1.386 . S
C232 C234 1.391 . S
C233 C232 1.386 . S
C233 C237 1.401 . S
C234 H226 0.950 . S
C234 C232 1.391 . S
C234 C235 1.400 . S
C235 C234 1.400 . S
C235 C236 1.398 1_545 S
C235 C241 1.491 . S
C236 H227 0.950 . S
C236 C235 1.398 1_565 S
C236 C237 1.390 1_565 S
C237 H225 0.943 1_545 S
C237 C233 1.401 . S
C237 C236 1.390 1_545 S
C238 H228 0.950 . S
C238 C239 1.386 1_565 S
C238 C240 1.391 . S
C239 C238 1.386 1_545 S
C239 C243 1.393 . S
C240 H229 0.950 . S
C240 C238 1.391 . S
C240 C241 1.400 1_565 S
C241 C235 1.491 . S
C241 C240 1.400 1_545 S
C241 C242 1.398 . S
C242 H230 0.950 . S
C242 C241 1.398 . S
C242 C243 1.391 . S
C243 H231 0.950 . S
C243 C239 1.393 . S
C243 C242 1.391 . S
H244 C252 0.950 . S
H245 C257 0.950 . S
H246 C254 0.950 . S
H247 C256 0.950 . S
H248 C258 0.950 . S
H249 C260 0.950 . S
H250 C262 0.950 . S
H251 C263 0.950 . S
C252 H244 0.950 . S
C252 C253 1.386 1_655 S
C252 C254 1.391 . S
C253 C252 1.386 1_455 S
C253 C257 1.393 . S
C254 H246 0.950 . S
C254 C252 1.391 . S
C254 C255 1.400 1_655 S
C255 C254 1.400 1_455 S
C255 C256 1.398 . S
C255 C261 1.491 . S
C256 H247 0.950 . S
C256 C255 1.398 . S
C256 C257 1.391 . S
C257 H245 0.950 . S
C257 C253 1.393 . S
C257 C256 1.391 . S
C258 H248 0.950 . S
C258 C259 1.386 . S
C258 C260 1.391 . S
C259 C258 1.386 . S
C259 C263 1.393 1_455 S
C260 H249 0.950 . S
C260 C258 1.391 . S
C260 C261 1.400 . S
C261 C255 1.491 . S
C261 C260 1.400 . S
C261 C262 1.398 1_455 S
C262 H250 0.950 . S
C262 C261 1.398 1_655 S
C262 C263 1.391 . S
C263 H251 0.950 . S
C263 C259 1.393 1_655 S
C263 C262 1.391 . S
H264 C272 0.950 . S
H265 C277 0.950 . S
H266 C274 0.950 . S
H267 C276 0.950 . S
H268 C278 0.950 . S
H269 C280 0.950 . S
H270 C282 0.950 . S
H271 C283 0.950 . S
C272 H264 0.950 . S
C272 C273 1.386 . S
C272 C274 1.391 . S
C273 C272 1.386 . S
C273 C277 1.393 . S
C274 H266 0.950 . S
C274 C272 1.391 . S
C274 C275 1.400 . S
C275 C274 1.400 . S
C275 C276 1.398 . S
C275 C281 1.491 . S
C276 H267 0.950 . S
C276 C275 1.398 . S
C276 C277 1.391 . S
C277 H265 0.950 . S
C277 C273 1.393 . S
C277 C276 1.391 . S
C278 H268 0.950 . S
C278 C279 1.386 . S
C278 C280 1.391 . S
C279 C278 1.386 . S
C279 C283 1.393 . S
C280 H269 0.950 . S
C280 C278 1.391 . S
C280 C281 1.400 . S
C281 C275 1.491 . S
C281 C280 1.400 . S
C281 C282 1.398 . S
C282 H270 0.950 . S
C282 C281 1.398 . S
C282 C283 1.391 . S
C283 H271 0.950 . S
C283 C279 1.393 . S
C283 C282 1.391 . S
H284 C292 0.950 . S
H285 C297 0.950 . S
H286 C294 0.950 . S
H287 C296 0.950 . S
H288 C298 0.950 . S
H289 C300 0.950 . S
H290 C302 0.950 . S
H291 C303 0.950 . S
C292 H284 0.950 . S
C292 C293 1.386 . S
C292 C294 1.391 . S
C293 C292 1.386 . S
C293 C297 1.393 . S
C294 H286 0.950 . S
C294 C292 1.391 . S
C294 C295 1.400 . S
C295 C294 1.400 . S
C295 C296 1.398 . S
C295 C301 1.491 . S
C296 H287 0.950 . S
C296 C295 1.398 . S
C296 C297 1.391 . S
C297 H285 0.950 . S
C297 C293 1.393 . S
C297 C296 1.391 . S
C298 H288 0.950 . S
C298 C299 1.386 . S
C298 C300 1.391 . S
C299 C298 1.386 . S
C299 C303 1.393 . S
C300 H289 0.950 . S
C300 C298 1.391 . S
C300 C301 1.400 . S
C301 C295 1.491 . S
C301 C300 1.400 . S
C301 C302 1.398 . S
C302 H290 0.950 . S
C302 C301 1.398 . S
C302 C303 1.391 . S
C303 H291 0.950 . S
C303 C299 1.393 . S
C303 C302 1.391 . S
H304 C312 0.950 . S
H305 C317 0.950 . S
H306 C314 0.950 . S
H307 C316 0.950 . S
H308 C318 0.950 . S
H309 C320 0.950 . S
H310 C322 0.950 . S
H311 C323 0.950 . S
C312 H304 0.950 . S
C312 C313 1.386 . S
C312 C314 1.391 . S
C313 C312 1.386 . S
C313 C317 1.393 . S
C314 H306 0.950 . S
C314 C312 1.391 . S
C314 C315 1.400 . S
C315 C314 1.400 . S
C315 C316 1.398 . S
C315 C321 1.491 . S
C316 H307 0.950 . S
C316 C315 1.398 . S
C316 C317 1.391 . S
C317 H305 0.950 . S
C317 C313 1.393 . S
C317 C316 1.391 . S
C318 H308 0.950 . S
C318 C319 1.386 . S
C318 C320 1.391 . S
C319 C318 1.386 . S
C319 C323 1.393 . S
C320 H309 0.950 . S
C320 C318 1.391 . S
C320 C321 1.400 . S
C321 C315 1.491 . S
C321 C320 1.400 . S
C321 C322 1.398 . S
C322 H310 0.950 . S
C322 C321 1.398 . S
C322 C323 1.391 . S
C323 H311 0.950 . S
C323 C319 1.393 . S
C323 C322 1.391 . S
H324 C332 0.950 . S
H325 C337 0.950 . S
H326 C334 0.950 . S
H327 C336 0.950 . S
H328 C338 0.950 . S
H329 C340 0.950 . S
H330 C342 0.950 . S
H331 C343 0.950 . S
C332 H324 0.950 . S
C332 C333 1.386 . S
C332 C334 1.391 . S
C333 C332 1.386 . S
C333 C337 1.393 . S
C334 H326 0.950 . S
C334 C332 1.391 . S
C334 C335 1.400 . S
C335 C334 1.400 . S
C335 C336 1.398 . S
C335 C341 1.491 . S
C336 H327 0.950 . S
C336 C335 1.398 . S
C336 C337 1.391 . S
C337 H325 0.950 . S
C337 C333 1.393 . S
C337 C336 1.391 . S
C338 H328 0.950 . S
C338 C339 1.386 . S
C338 C340 1.391 . S
C339 C338 1.386 . S
C339 C343 1.393 . S
C340 H329 0.950 . S
C340 C338 1.391 . S
C340 C341 1.400 . S
C341 C335 1.491 . S
C341 C340 1.400 . S
C341 C342 1.398 . S
C342 H330 0.950 . S
C342 C341 1.398 . S
C342 C343 1.391 . S
C343 H331 0.950 . S
C343 C339 1.393 . S
C343 C342 1.391 . S
H344 C352 0.950 . S
H345 C357 0.950 . S
H346 C354 0.950 . S
H347 C356 0.950 . S
H348 C358 0.950 . S
H349 C360 0.950 . S
H350 C362 0.950 . S
H351 C363 0.950 . S
C352 H344 0.950 . S
C352 C353 1.386 . S
C352 C354 1.391 . S
C353 C352 1.386 . S
C353 C357 1.393 . S
C354 H346 0.950 . S
C354 C352 1.391 . S
C354 C355 1.400 . S
C355 C354 1.400 . S
C355 C356 1.398 . S
C355 C361 1.491 . S
C356 H347 0.950 . S
C356 C355 1.398 . S
C356 C357 1.391 . S
C357 H345 0.950 . S
C357 C353 1.393 . S
C357 C356 1.391 . S
C358 H348 0.950 . S
C358 C359 1.386 . S
C358 C360 1.391 . S
C359 C358 1.386 . S
C359 C363 1.393 . S
C360 H349 0.950 . S
C360 C358 1.391 . S
C360 C361 1.400 . S
C361 C355 1.491 . S
C361 C360 1.400 . S
C361 C362 1.398 . S
C362 H350 0.950 . S
C362 C361 1.398 . S
C362 C363 1.391 . S
C363 H351 0.950 . S
C363 C359 1.393 . S
C363 C362 1.391 . S
H364 C372 0.950 . S
H365 C377 0.950 . S
H366 C374 0.950 . S
H367 C376 0.950 . S
H368 C378 0.950 . S
H369 C380 0.950 . S
H370 C382 0.950 . S
H371 C383 0.950 . S
C372 H364 0.950 . S
C372 C373 1.386 . S
C372 C374 1.391 . S
C373 C372 1.386 . S
C373 C377 1.393 . S
C374 H366 0.950 . S
C374 C372 1.391 . S
C374 C375 1.400 . S
C375 C374 1.400 . S
C375 C376 1.398 . S
C375 C381 1.491 . S
C376 H367 0.950 . S
C376 C375 1.398 . S
C376 C377 1.391 . S
C377 H365 0.950 . S
C377 C373 1.393 . S
C377 C376 1.391 . S
C378 H368 0.950 . S
C378 C379 1.386 . S
C378 C380 1.391 . S
C379 C378 1.386 . S
C379 C383 1.393 . S
C380 H369 0.950 . S
C380 C378 1.391 . S
C380 C381 1.400 . S
C381 C375 1.491 . S
C381 C380 1.400 . S
C381 C382 1.398 . S
C382 H370 0.950 . S
C382 C381 1.398 . S
C382 C383 1.391 . S
C383 H371 0.950 . S
C383 C379 1.393 . S
C383 C382 1.391 . S
H384 C392 0.950 . S
H385 C397 0.950 . S
H386 C394 0.950 . S
H387 C396 0.950 . S
H388 C398 0.950 . S
H389 C400 0.950 . S
H390 C402 0.950 . S
H391 C403 0.950 . S
C392 H384 0.950 . S
C392 C393 1.386 . S
C392 C394 1.391 . S
C393 C392 1.386 . S
C393 C397 1.393 . S
C394 H386 0.950 . S
C394 C392 1.391 . S
C394 C395 1.400 . S
C395 C394 1.400 . S
C395 C396 1.398 . S
C395 C401 1.491 . S
C396 H387 0.950 . S
C396 C395 1.398 . S
C396 C397 1.391 . S
C397 H385 0.950 . S
C397 C393 1.393 . S
C397 C396 1.391 . S
C398 H388 0.950 . S
C398 C399 1.386 . S
C398 C400 1.391 . S
C399 C398 1.386 . S
C399 C403 1.393 . S
C400 H389 0.950 . S
C400 C398 1.391 . S
C400 C401 1.400 . S
C401 C395 1.491 . S
C401 C400 1.400 . S
C401 C402 1.398 . S
C402 H390 0.950 . S
C402 C401 1.398 . S
C402 C403 1.391 . S
C403 H391 0.950 . S
C403 C399 1.393 . S
C403 C402 1.391 . S
H404 C412 0.950 . S
H405 C417 0.950 . S
H406 C414 0.950 . S
H407 C416 0.950 . S
H408 C418 0.950 . S
H409 C420 0.950 . S
H410 C422 0.950 . S
H411 C423 0.950 . S
C412 H404 0.950 . S
C412 C413 1.386 . S
C412 C414 1.391 . S
C413 C412 1.386 . S
C413 C417 1.393 . S
C414 H406 0.950 . S
C414 C412 1.391 . S
C414 C415 1.400 . S
C415 C414 1.400 . S
C415 C416 1.398 . S
C415 C421 1.491 . S
C416 H407 0.950 . S
C416 C415 1.398 . S
C416 C417 1.391 . S
C417 H405 0.950 . S
C417 C413 1.393 . S
C417 C416 1.391 . S
C418 H408 0.950 . S
C418 C419 1.386 . S
C418 C420 1.391 . S
C419 C418 1.386 . S
C419 C423 1.393 . S
C420 H409 0.950 . S
C420 C418 1.391 . S
C420 C421 1.400 . S
C421 C415 1.491 . S
C421 C420 1.400 . S
C421 C422 1.398 . S
C422 H410 0.950 . S
C422 C421 1.398 . S
C422 C423 1.391 . S
C423 H411 0.950 . S
C423 C419 1.393 . S
C423 C422 1.391 . S
C113 C8 1.535 . S
C119 C60 1.525 . S
C133 C21 1.533 . S
C139 C73 1.522 . S
C153 C86 1.523 . S
C159 C34 1.519 . S
C173 C99 1.533 . S
C179 C47 1.535 . S
C193 C0 1.109 . S
C199 C26 1.109 . S
C213 C13 1.100 . S
C219 C39 1.099 . S
C233 C78 1.110 . S
C239 C52 1.110 . S
C253 C65 1.102 . S
C259 C91 1.103 . S
C273 C75 1.278 . S
C279 C10 1.290 . S
C293 C23 1.284 . S
C299 C88 1.296 . S
C313 C101 1.274 . S
C319 C36 1.283 . S
C333 C49 1.298 . S
C339 C62 1.290 . S
C353 C83 1.198 . S
C359 C44 1.219 . S
C373 C5 1.220 . S
C379 C96 1.190 . S
C393 C18 1.222 . S
C399 C57 1.192 . S
C413 C70 1.190 . S
C419 C31 1.221 . S
