# Generated by pormake.
# Topology dft, (4)-cn, num edge types: 1
# Building blocks:
#     Node 0, Type 0, BuildingBlock: CEKHIL_clean_sbu_0, # of connection points: 4
#     Node 1, Type 0, BuildingBlock: CEKHIL_clean_sbu_0, # of connection points: 4
#     Node 2, Type 0, BuildingBlock: CEKHIL_clean_sbu_0, # of connection points: 4
#     Node 3, Type 0, BuildingBlock: CEKHIL_clean_sbu_0, # of connection points: 4
#     Node 4, Type 0, BuildingBlock: CEKHIL_clean_sbu_0, # of connection points: 4
#     Node 5, Type 0, BuildingBlock: CEKHIL_clean_sbu_0, # of connection points: 4
#     Node 6, Type 0, BuildingBlock: CEKHIL_clean_sbu_0, # of connection points: 4
#     Node 7, Type 0, BuildingBlock: CEKHIL_clean_sbu_0, # of connection points: 4
#     Edge 8, Type (0, 0), BuildingBlock: CIFDUS_clean_linker_0, # of connection points: 2
#     Edge 9, Type (0, 0), BuildingBlock: CIFDUS_clean_linker_0, # of connection points: 2
#     Edge 10, Type (0, 0), BuildingBlock: CIFDUS_clean_linker_0, # of connection points: 2
#     Edge 11, Type (0, 0), BuildingBlock: CIFDUS_clean_linker_0, # of connection points: 2
#     Edge 12, Type (0, 0), BuildingBlock: CIFDUS_clean_linker_0, # of connection points: 2
#     Edge 13, Type (0, 0), BuildingBlock: CIFDUS_clean_linker_0, # of connection points: 2
#     Edge 14, Type (0, 0), BuildingBlock: CIFDUS_clean_linker_0, # of connection points: 2
#     Edge 15, Type (0, 0), BuildingBlock: CIFDUS_clean_linker_0, # of connection points: 2
#     Edge 16, Type (0, 0), BuildingBlock: CIFDUS_clean_linker_0, # of connection points: 2
#     Edge 17, Type (0, 0), BuildingBlock: CIFDUS_clean_linker_0, # of connection points: 2
#     Edge 18, Type (0, 0), BuildingBlock: CIFDUS_clean_linker_0, # of connection points: 2
#     Edge 19, Type (0, 0), BuildingBlock: CIFDUS_clean_linker_0, # of connection points: 2
#     Edge 20, Type (0, 0), BuildingBlock: CIFDUS_clean_linker_0, # of connection points: 2
#     Edge 21, Type (0, 0), BuildingBlock: CIFDUS_clean_linker_0, # of connection points: 2
#     Edge 22, Type (0, 0), BuildingBlock: CIFDUS_clean_linker_0, # of connection points: 2
#     Edge 23, Type (0, 0), BuildingBlock: CIFDUS_clean_linker_0, # of connection points: 2
# Relax obj value: 0.181
# Max RMSD: 0.171
# Mean RMSD: 0.171
data_MOF--net-dft--node1-CEKHIL_clean_sbu_0--edge1-CIFDUS_clean_linker_0
_symmetry_space_group_name_H-M    P1
_symmetry_Int_Tables_number       1
_symmetry_cell_setting            triclinic
loop_
_symmetry_equiv_pos_as_xyz
'x, y, z'
_cell_length_a     29.478535
_cell_length_b     29.53684
_cell_length_c     35.664915
_cell_angle_alpha  89.784269
_cell_angle_beta   90.062064
_cell_angle_gamma 90.005951
loop_
_atom_site_label
_atom_site_type_symbol
_atom_site_fract_x
_atom_site_fract_y
_atom_site_fract_z
_atom_type_partial_charge
Co0 Co 0.35357 0.04662 0.18583 0.0
O1 O 0.40853 0.01219 0.17929 0.0
O2 O 0.40584 0.08289 0.19944 0.0
C3 C 0.31441 0.99073 0.21421 0.0
O4 O 0.30323 0.0923 0.19841 0.0
Co5 Co 0.26255 0.01633 0.14894 0.0
O6 O 0.23592 0.0605 0.18451 0.0
C7 C 0.33897 0.04904 0.10301 0.0
C8 C 0.43024 0.04768 0.19094 0.0
C9 C 0.25948 0.09142 0.20007 0.0
O10 O 0.35731 0.06754 0.13195 0.0
O11 O 0.30404 0.02339 0.10482 0.0
O12 O 0.3421 0.01565 0.23375 0.0
O13 O 0.31414 0.99844 0.17876 0.0
Co14 Co 0.07925 0.35275 0.69673 0.0
O15 O 0.10372 0.41279 0.69261 0.0
O16 O 0.03363 0.39701 0.71066 0.0
C17 C 0.13991 0.32198 0.72534 0.0
O18 O 0.04329 0.29407 0.70637 0.0
Co19 Co 0.12767 0.27265 0.65624 0.0
O20 O 0.08818 0.23588 0.6895 0.0
C21 C 0.08352 0.3455 0.61345 0.0
C22 C 0.06436 0.42746 0.70327 0.0
C23 C 0.05306 0.2514 0.70593 0.0
O24 O 0.05998 0.35626 0.64248 0.0
O25 O 0.11562 0.31636 0.61443 0.0
O26 O 0.11004 0.34384 0.74519 0.0
O27 O 0.13383 0.32333 0.68973 0.0
Co28 Co 0.7742 0.08867 0.17753 0.0
O29 O 0.7186 0.12241 0.17252 0.0
O30 O 0.72354 0.0533 0.19633 0.0
C31 C 0.81561 0.14671 0.19971 0.0
O32 O 0.82636 0.04438 0.18985 0.0
Co33 Co 0.86122 0.11635 0.13302 0.0
O34 O 0.89131 0.07777 0.17121 0.0
C35 C 0.77872 0.08425 0.09479 0.0
C36 C 0.6982 0.08771 0.1872 0.0
C37 C 0.87009 0.04779 0.1901 0.0
O38 O 0.7651 0.06463 0.12507 0.0
O39 O 0.81366 0.10987 0.09338 0.0
O40 O 0.79019 0.12345 0.22264 0.0
O41 O 0.81235 0.13603 0.165 0.0
Co42 Co 0.04981 0.77227 0.67809 0.0
O43 O 0.02051 0.71356 0.67809 0.0
O44 O 0.09315 0.72575 0.6902 0.0
C45 C 0.99532 0.80892 0.71 0.0
O46 O 0.09268 0.82649 0.68393 0.0
Co47 Co 0.0083 0.85871 0.64172 0.0
O48 O 0.05589 0.89109 0.67054 0.0
C49 C 0.03608 0.78065 0.59583 0.0
C50 C 0.06001 0.69705 0.6869 0.0
C51 C 0.09 0.87007 0.68403 0.0
O52 O 0.06193 0.76614 0.62249 0.0
O53 O 0.00875 0.81396 0.59968 0.0
O54 O 0.02526 0.7849 0.7282 0.0
O55 O 0.99776 0.80718 0.67411 0.0
Co56 Co 0.35226 0.07251 0.80347 0.0
O57 O 0.41262 0.09594 0.80969 0.0
O58 O 0.39651 0.02729 0.78885 0.0
C59 C 0.32344 0.13489 0.77604 0.0
O60 O 0.29368 0.03776 0.79103 0.0
Co61 Co 0.27015 0.11942 0.84259 0.0
O62 O 0.23482 0.08252 0.8065 0.0
C63 C 0.34005 0.07201 0.8866 0.0
C64 C 0.42714 0.05729 0.79746 0.0
C65 C 0.25107 0.04799 0.78984 0.0
O66 O 0.35312 0.05041 0.8572 0.0
O67 O 0.31104 0.10421 0.88564 0.0
O68 O 0.34577 0.10575 0.75588 0.0
O69 O 0.32301 0.127 0.81146 0.0
Co70 Co 0.05451 0.3506 0.31632 0.0
O71 O 0.0289 0.41047 0.3182 0.0
O72 O 0.09778 0.39466 0.29742 0.0
C73 C 0.99228 0.31663 0.29293 0.0
O74 O 0.0915 0.29233 0.30798 0.0
Co75 Co 0.01137 0.27172 0.36284 0.0
O76 O 0.05132 0.23379 0.33121 0.0
C77 C 0.05614 0.3486 0.39967 0.0
C78 C 0.06691 0.42501 0.3044 0.0
C79 C 0.08442 0.2494 0.31208 0.0
O80 O 0.07765 0.35828 0.36925 0.0
O81 O 0.02458 0.31894 0.40132 0.0
O82 O 0.02009 0.33736 0.27026 0.0
O83 O 1.00133 0.32051 0.32792 0.0
Co84 Co 0.77358 0.04294 0.80574 0.0
O85 O 0.71494 0.01343 0.80572 0.0
O86 O 0.7266 0.08642 0.79516 0.0
C87 C 0.81045 0.98982 0.7725 0.0
O88 O 0.82779 0.08616 0.80063 0.0
Co89 Co 0.86031 1.00026 0.84089 0.0
O90 O 0.8926 0.0495 0.81394 0.0
C91 C 0.78187 0.02559 0.88746 0.0
C92 C 0.69802 0.05315 0.79841 0.0
C93 C 0.87149 0.0839 0.80107 0.0
O94 O 0.7677 0.05281 0.86161 0.0
O95 O 0.81518 0.99844 0.88274 0.0
O96 O 0.78618 0.02014 0.75495 0.0
O97 O 0.80867 0.99114 0.8084 0.0
Co98 Co 0.073 0.77118 0.30236 0.0
O99 O 0.10363 0.71321 0.30478 0.0
O100 O 0.03105 0.72306 0.29105 0.0
C101 C 0.12787 0.80798 0.2706 0.0
O102 O 0.02913 0.82442 0.2943 0.0
Co103 Co 0.11206 0.85925 0.33744 0.0
O104 O 0.06284 0.89011 0.30924 0.0
C105 C 0.08566 0.78136 0.38436 0.0
C106 C 0.06469 0.69529 0.29626 0.0
C107 C 0.02991 0.8681 0.29493 0.0
O108 O 0.0598 0.76644 0.35794 0.0
O109 O 0.11272 0.81482 0.37995 0.0
O110 O 0.0989 0.78302 0.25231 0.0
O111 O 0.12411 0.80714 0.30641 0.0
H112 H 0.34992 0.98978 0.04676 0.0
H113 H 0.36579 0.13071 0.07487 0.0
H114 H 0.3755 0.1496 0.00838 0.0
H115 H 0.36528 0.12721 0.94252 0.0
H116 H 0.34907 0.98634 0.91438 0.0
H117 H 0.35473 0.96572 0.98087 0.0
C118 C 0.35663 0.02446 0.03827 0.0
C119 C 0.35633 0.05905 0.06526 0.0
C120 C 0.36171 0.03491 0.00017 0.0
C121 C 0.36577 0.10371 0.05439 0.0
C122 C 0.37096 0.11447 0.01643 0.0
C123 C 0.36422 0.0919 0.95099 0.0
C124 C 0.35598 0.05827 0.92401 0.0
C125 C 0.36688 0.08058 0.98909 0.0
C126 C 0.35531 0.01263 0.93485 0.0
C127 C 0.35812 1.00097 0.97281 0.0
H128 H 0.14134 0.36307 0.55686 0.0
H129 H 0.99988 0.36999 0.58717 0.0
H130 H 0.97951 0.38259 0.52139 0.0
H131 H 1.00111 0.37502 0.45526 0.0
H132 H 0.14218 0.36419 0.42487 0.0
H133 H 0.16396 0.37112 0.49091 0.0
C134 C 0.10612 0.36829 0.54908 0.0
C135 C 0.07193 0.36431 0.5764 0.0
C136 C 0.09477 0.37455 0.51132 0.0
C137 C 0.02662 0.37238 0.56643 0.0
C138 C 0.01501 0.37932 0.52886 0.0
C139 C 0.03669 0.37561 0.46311 0.0
C140 C 0.07008 0.36813 0.43569 0.0
C141 C 0.04863 0.37803 0.501 0.0
C142 C 0.11604 0.36972 0.44568 0.0
C143 C 0.12837 0.37313 0.48342 0.0
H144 H 0.74781 0.0981 0.92517 0.0
H145 H 0.77253 0.95467 0.93493 0.0
H146 H 0.76156 0.95811 0.00253 0.0
H147 H 0.76349 0.00488 0.05936 0.0
H148 H 0.74457 0.14896 0.04977 0.0
H149 H 0.73324 0.14236 0.98219 0.0
C150 C 0.7492 0.06747 0.94201 0.0
C151 C 0.76218 0.02653 0.92542 0.0
C152 C 0.74438 0.06993 0.98116 0.0
C153 C 0.76366 0.98688 0.9474 0.0
C154 C 0.75744 0.98877 0.98607 0.0
C155 C 0.75479 0.03436 0.04258 0.0
C156 C 0.75518 0.07726 0.05905 0.0
C157 C 0.75053 0.03054 0.00348 0.0
C158 C 0.74451 0.11556 0.03727 0.0
C159 C 0.73849 0.11187 -0.00137 0.0
H160 H 0.01094 0.75762 0.42455 0.0
H161 H 0.15685 0.76338 0.42951 0.0
H162 H 0.15504 0.75305 0.49737 0.0
H163 H 0.11143 0.75924 0.55588 0.0
H164 H 0.96542 0.76003 0.55096 0.0
H165 H 0.96756 0.7498 0.48313 0.0
C166 C 0.04223 0.75493 0.44044 0.0
C167 C 0.08384 0.76187 0.42238 0.0
C168 C 0.04086 0.75088 0.47973 0.0
C169 C 0.12433 0.75865 0.44312 0.0
C170 C 0.12335 0.75295 0.48193 0.0
C171 C 0.08025 0.75546 0.54001 0.0
C172 C 0.03843 0.76095 0.55804 0.0
C173 C 0.08175 0.75156 0.50075 0.0
C174 C 0.99806 0.75638 0.53734 0.0
C175 C 0.99923 0.75077 0.49856 0.0
H176 H 0.48666 0.12057 0.19465 0.0
H177 H 0.48641 0.97458 0.19277 0.0
H178 H 0.56925 0.97375 0.19429 0.0
H179 H 0.64218 0.0146 0.1932 0.0
H180 H 0.64219 0.1606 0.19078 0.0
H181 H 0.55946 0.16136 0.19414 0.0
C182 C 0.50477 0.08861 0.19487 0.0
C183 C 0.4804 0.04774 0.19359 0.0
C184 C 0.55252 0.08838 0.19488 0.0
C185 C 0.50436 0.00656 0.19356 0.0
C186 C 0.55177 0.00603 0.19448 0.0
C187 C 0.62403 0.04653 0.1938 0.0
C188 C 0.64828 0.08745 0.19181 0.0
C189 C 0.57627 0.04673 0.19473 0.0
C190 C 0.6243 0.1286 0.19217 0.0
C191 C 0.57696 0.12909 0.19408 0.0
H192 H 0.12606 0.49497 0.7021 0.0
H193 H 0.98195 0.47047 0.707 0.0
H194 H 0.96755 0.5521 0.70284 0.0
H195 H 0.99631 0.63035 0.69474 0.0
H196 H 0.14089 0.65337 0.69134 0.0
H197 H 0.15464 0.57239 0.69789 0.0
C198 C 0.09145 0.50744 0.70248 0.0
C199 C 0.0551 0.4767 0.70457 0.0
C200 C 0.08352 0.55417 0.70007 0.0
C201 C 0.01052 0.49345 0.70544 0.0
C202 C 1.00229 0.5401 0.70287 0.0
C203 C 0.03079 0.61758 0.6955 0.0
C204 C 0.06751 0.64787 0.69222 0.0
C205 C 0.03855 0.57077 0.69964 0.0
C206 C 0.112 0.63087 0.6937 0.0
C207 C 0.11994 0.58452 0.69743 0.0
H208 H 0.63076 0.98984 0.79283 0.0
H209 H 0.65404 0.13399 0.79792 0.0
H210 H 0.57252 0.14772 0.79717 0.0
H211 H 0.49471 0.11906 0.79745 0.0
H212 H 0.47005 0.97542 0.79032 0.0
H213 H 0.55198 0.9612 0.78922 0.0
C214 C 0.61794 0.02423 0.79363 0.0
C215 C 0.64848 0.06081 0.7957 0.0
C216 C 0.57081 0.03198 0.79288 0.0
C217 C 0.63135 0.1052 0.79635 0.0
C218 C 0.58469 0.11312 0.79601 0.0
C219 C 0.50722 0.0846 0.79556 0.0
C220 C 0.47639 0.0483 0.79432 0.0
C221 C 0.55415 0.07679 0.79466 0.0
C222 C 0.49312 1.00393 0.79136 0.0
C223 C 0.53995 0.9958 0.79084 0.0
H224 H 1.00332 0.49086 0.30077 0.0
H225 H 0.14784 0.46938 0.29517 0.0
H226 H 0.16019 0.55134 0.29124 0.0
H227 H 0.12969 0.62943 0.29262 0.0
H228 H 0.98473 0.64953 0.29608 0.0
H229 H 0.97281 0.56785 0.29753 0.0
C230 C 0.03755 0.50407 0.29849 0.0
C231 C 0.07464 0.47411 0.29862 0.0
C232 C 0.0443 0.55104 0.29602 0.0
C233 C 0.11872 0.49174 0.29517 0.0
C234 C 0.12578 0.5386 0.29306 0.0
C235 C 0.09552 0.61587 0.29351 0.0
C236 C 0.05816 0.64559 0.29455 0.0
C237 C 0.08883 0.56864 0.29399 0.0
C238 C 0.01408 0.62749 0.29529 0.0
C239 C 0.00721 0.58074 0.29621 0.0
H240 H 0.16904 0.2618 0.27942 0.0
H241 H 0.06677 0.16025 0.30165 0.0
H242 H 0.11189 0.10375 0.26993 0.0
H243 H 0.17892 0.0823 0.23478 0.0
H244 H 0.28419 0.18022 0.2133 0.0
H245 H 0.2397 0.23853 0.2458 0.0
C246 C 0.15673 0.22731 0.27735 0.0
C247 C 0.11426 0.21571 0.29305 0.0
C248 C 0.18336 0.19412 0.25909 0.0
C249 C 0.09918 0.17058 0.29016 0.0
C250 C 0.12496 0.13798 0.27185 0.0
C251 C 0.19222 0.11643 0.23707 0.0
C252 C 0.23458 0.12696 0.2212 0.0
C253 C 0.16685 0.14934 0.25606 0.0
C254 C 0.25163 0.17118 0.22521 0.0
C255 C 0.22609 0.20455 0.24371 0.0
H256 H 0.96183 0.2568 0.72403 0.0
H257 H 0.07953 0.17042 0.7338 0.0
H258 H 0.03453 0.11283 0.765 0.0
H259 H 0.96214 0.08518 0.78789 0.0
H260 H 0.84229 0.1681 0.77718 0.0
H261 H 0.88759 0.22842 0.74825 0.0
C262 C 0.97755 0.22547 0.73319 0.0
C263 C 0.02407 0.21803 0.72618 0.0
C264 C 0.95109 0.19162 0.75095 0.0
C265 C 0.04379 0.17706 0.73823 0.0
C266 C 0.0181 0.14397 0.75628 0.0
C267 C 0.94571 0.11651 0.77956 0.0
C268 C 0.89873 0.12189 0.78496 0.0
C269 C 0.97173 0.15065 0.76249 0.0
C270 C 0.87836 0.16282 0.7735 0.0
C271 C 0.90429 0.1974 0.75688 0.0
H272 H 0.01982 0.95955 0.29243 0.0
H273 H 0.95493 0.83603 0.25675 0.0
H274 H 0.89693 0.88016 0.22356 0.0
H275 H 0.86729 0.95491 0.20106 0.0
H276 H 0.93623 0.07665 0.23561 0.0
H277 H 0.98932 0.03231 0.27297 0.0
C278 C 0.9929 0.942 0.27768 0.0
C279 C 0.99215 0.89434 0.27713 0.0
C280 C 0.96014 0.9675 0.25824 0.0
C281 C 0.95662 0.87263 0.25778 0.0
C282 C 0.92339 0.89791 0.23867 0.0
C283 C 0.89359 0.97153 0.21722 0.0
C284 C 0.89796 0.01904 0.21541 0.0
C285 C 0.92511 0.9455 0.2382 0.0
C286 C 0.93243 0.04015 0.23626 0.0
C287 C 0.96285 0.01482 0.25765 0.0
H288 H 0.08987 0.96015 0.6992 0.0
H289 H 0.17337 0.84078 0.70969 0.0
H290 H 0.23172 0.88511 0.74192 0.0
H291 H 0.25802 0.95807 0.76928 0.0
H292 H 0.17126 0.07541 0.75988 0.0
H293 H 0.11573 0.03165 0.72515 0.0
C294 C 0.12093 0.94367 0.70818 0.0
C295 C 0.12702 0.89707 0.70177 0.0
C296 C 0.15394 0.96912 0.72721 0.0
C297 C 0.16757 0.87657 0.71409 0.0
C298 C 0.20102 0.90194 0.73262 0.0
C299 C 0.22706 0.974 0.75946 0.0
C300 C 0.21886 0.01999 0.76759 0.0
C301 C 0.19445 0.94827 0.73967 0.0
C302 C 0.1784 0.04002 0.75462 0.0
C303 C 0.14653 0.01504 0.73455 0.0
H304 H 0.8669 0.93135 0.807 0.0
H305 H 0.8253 0.97731 0.69713 0.0
H306 H 0.87906 0.92438 0.66838 0.0
H307 H 0.93736 0.86581 0.67495 0.0
H308 H 0.9804 0.82193 0.78504 0.0
H309 H 0.92597 0.87411 0.81361 0.0
C310 C 0.86954 0.93008 0.77671 0.0
C311 C 0.84218 0.95832 0.75413 0.0
C312 C 0.9006 0.90015 0.76064 0.0
C313 C 0.846 0.95596 0.71502 0.0
C314 C 0.87668 0.92577 0.69867 0.0
C315 C 0.93503 0.86763 0.70525 0.0
C316 C 0.96292 0.84004 0.72796 0.0
C317 C 0.90411 0.89782 0.72128 0.0
C318 C 0.95934 0.84281 0.76706 0.0
C319 C 0.92827 0.87258 0.78331 0.0
H320 H 0.25462 0.93788 0.17703 0.0
H321 H 0.30346 0.96884 0.28823 0.0
H322 H 0.25032 0.91379 0.31485 0.0
H323 H 0.19017 0.8582 0.30646 0.0
H324 H 0.13997 0.8274 0.19567 0.0
H325 H 0.19422 0.88146 0.1686 0.0
C326 C 0.25366 0.93267 0.20713 0.0
C327 C 0.28284 0.95749 0.23074 0.0
C328 C 0.22304 0.90117 0.22211 0.0
C329 C 0.28132 0.95021 0.26957 0.0
C330 C 0.25099 0.91878 0.28473 0.0
C331 C 0.19091 0.8632 0.27632 0.0
C332 C 0.16094 0.83896 0.25301 0.0
C333 C 0.22171 0.89427 0.26124 0.0
C334 C 0.16268 0.84566 0.21411 0.0
C335 C 0.19358 0.87657 0.19873 0.0
H336 H 0.20012 0.27155 0.68703 0.0
H337 H 0.15843 0.30547 0.79951 0.0
H338 H 0.21426 0.252 0.82487 0.0
H339 H 0.27186 0.19384 0.81466 0.0
H340 H 0.31034 0.15683 0.70207 0.0
H341 H 0.25833 0.21406 0.67684 0.0
C342 C 0.20317 0.26739 0.71715 0.0
C343 C 0.17502 0.29222 0.74146 0.0
C344 C 0.23451 0.23617 0.7313 0.0
C345 C 0.17969 0.28668 0.78032 0.0
C346 C 0.21148 0.25611 0.79474 0.0
C347 C 0.26903 0.19824 0.78455 0.0
C348 C 0.2947 0.17098 0.76016 0.0
C349 C 0.2386 0.23037 0.77043 0.0
C350 C 0.29088 0.17738 0.72132 0.0
C351 C 0.26113 0.20996 0.70697 0.0
H352 H 0.97056 0.29129 0.22166 0.0
H353 H 0.9318 0.27314 0.33742 0.0
H354 H 0.87366 0.21911 0.31931 0.0
H355 H 0.83443 0.17532 0.27067 0.0
H356 H 0.87244 0.19441 0.15484 0.0
H357 H 0.92975 0.24928 0.17287 0.0
C358 C 0.94919 0.27568 0.24281 0.0
C359 C 0.95569 0.28604 0.28071 0.0
C360 C 0.9156 0.24448 0.23227 0.0
C361 C 0.92772 0.26557 0.30792 0.0
C362 C 0.89436 0.23459 0.29767 0.0
C363 C 0.85521 0.19161 0.24947 0.0
C364 C 0.84932 0.18059 0.21163 0.0
C365 C 0.88816 0.2235 0.25995 0.0
C366 C 0.8764 0.20205 0.18433 0.0
C367 C 0.90925 0.23358 0.19453 0.0
loop_
_geom_bond_atom_site_label_1
_geom_bond_atom_site_label_2
_geom_bond_distance
_geom_bond_site_symmetry_2
_ccdc_geom_bond_type
Co0 O1 2.223 . S
Co0 O2 2.091 . S
Co0 O4 2.004 . S
Co0 O10 2.021 . S
Co0 O12 2.129 1_545 S
Co0 O13 2.244 1_545 S
O1 Co0 2.223 . S
O1 C8 1.255 . S
O2 Co0 2.091 . S
O2 C8 1.261 . S
C3 O12 1.254 . S
C3 O13 1.272 . S
O4 Co0 2.004 . S
O4 C9 1.259 . S
Co5 O6 2.061 . S
Co5 O11 2.052 . S
Co5 O13 2.135 1_545 S
O6 Co5 2.061 . S
O6 C9 1.235 . S
C7 O10 1.238 . S
C7 O11 1.241 . S
C8 O1 1.255 . S
C8 O2 1.261 . S
C9 O4 1.259 . S
C9 O6 1.235 . S
O10 Co0 2.021 . S
O10 C7 1.238 . S
O11 Co5 2.052 . S
O11 C7 1.241 . S
O12 Co0 2.129 1_565 S
O12 C3 1.254 . S
O13 Co0 2.244 1_565 S
O13 C3 1.272 . S
O13 Co5 2.135 1_565 S
Co14 O15 2.216 . S
Co14 O16 2.091 . S
Co14 O18 2.004 . S
Co14 O24 2.021 . S
Co14 O26 2.137 . S
Co14 O27 2.244 . S
O15 Co14 2.216 . S
O15 C22 1.247 . S
O16 Co14 2.091 . S
O16 C22 1.261 . S
C17 O26 1.247 . S
C17 O27 1.272 . S
O18 Co14 2.004 . S
O18 C23 1.259 . S
Co19 O20 2.061 . S
Co19 O25 2.052 . S
Co19 O27 2.135 . S
O20 Co19 2.061 . S
O20 C23 1.235 . S
C21 O24 1.238 . S
C21 O25 1.241 . S
C22 O15 1.247 . S
C22 O16 1.261 . S
C23 O18 1.259 . S
C23 O20 1.235 . S
O24 Co14 2.021 . S
O24 C21 1.238 . S
O25 Co19 2.052 . S
O25 C21 1.241 . S
O26 Co14 2.137 . S
O26 C17 1.247 . S
O27 Co14 2.244 . S
O27 C17 1.272 . S
O27 Co19 2.135 . S
Co28 O29 2.216 . S
Co28 O30 2.091 . S
Co28 O32 2.004 . S
Co28 O38 2.021 . S
Co28 O40 2.137 . S
Co28 O41 2.244 . S
O29 Co28 2.216 . S
O29 C36 1.247 . S
O30 Co28 2.091 . S
O30 C36 1.261 . S
C31 O40 1.247 . S
C31 O41 1.272 . S
O32 Co28 2.004 . S
O32 C37 1.259 . S
Co33 O34 2.061 . S
Co33 O39 2.052 . S
Co33 O41 2.135 . S
O34 Co33 2.061 . S
O34 C37 1.235 . S
C35 O38 1.238 . S
C35 O39 1.241 . S
C36 O29 1.247 . S
C36 O30 1.261 . S
C37 O32 1.259 . S
C37 O34 1.235 . S
O38 Co28 2.021 . S
O38 C35 1.238 . S
O39 Co33 2.052 . S
O39 C35 1.241 . S
O40 Co28 2.137 . S
O40 C31 1.247 . S
O41 Co28 2.244 . S
O41 C31 1.272 . S
O41 Co33 2.135 . S
Co42 O43 2.223 . S
Co42 O44 2.091 . S
Co42 O46 2.004 . S
Co42 O52 2.021 . S
Co42 O54 2.129 1_455 S
Co42 O55 2.244 1_455 S
O43 Co42 2.223 . S
O43 C50 1.255 . S
O44 Co42 2.091 . S
O44 C50 1.261 . S
C45 O54 1.254 . S
C45 O55 1.272 . S
O46 Co42 2.004 . S
O46 C51 1.259 . S
Co47 O48 2.061 . S
Co47 O53 2.052 . S
Co47 O55 2.135 1_455 S
O48 Co47 2.061 . S
O48 C51 1.235 . S
C49 O52 1.238 . S
C49 O53 1.241 . S
C50 O43 1.255 . S
C50 O44 1.261 . S
C51 O46 1.259 . S
C51 O48 1.235 . S
O52 Co42 2.021 . S
O52 C49 1.238 . S
O53 Co47 2.052 . S
O53 C49 1.241 . S
O54 Co42 2.129 1_655 S
O54 C45 1.254 . S
O55 Co42 2.244 1_655 S
O55 C45 1.272 . S
O55 Co47 2.135 1_655 S
Co56 O57 2.216 . S
Co56 O58 2.091 . S
Co56 O60 2.004 . S
Co56 O66 2.021 . S
Co56 O68 2.137 . S
Co56 O69 2.244 . S
O57 Co56 2.216 . S
O57 C64 1.247 . S
O58 Co56 2.091 . S
O58 C64 1.261 . S
C59 O68 1.247 . S
C59 O69 1.272 . S
O60 Co56 2.004 . S
O60 C65 1.259 . S
Co61 O62 2.061 . S
Co61 O67 2.052 . S
Co61 O69 2.135 . S
O62 Co61 2.061 . S
O62 C65 1.235 . S
C63 O66 1.238 . S
C63 O67 1.241 . S
C64 O57 1.247 . S
C64 O58 1.261 . S
C65 O60 1.259 . S
C65 O62 1.235 . S
O66 Co56 2.021 . S
O66 C63 1.238 . S
O67 Co61 2.052 . S
O67 C63 1.241 . S
O68 Co56 2.137 . S
O68 C59 1.247 . S
O69 Co56 2.244 . S
O69 C59 1.272 . S
O69 Co61 2.135 . S
Co70 O71 2.223 . S
Co70 O72 2.091 . S
Co70 O74 2.004 . S
Co70 O80 2.021 . S
Co70 O82 2.129 1_455 S
Co70 O83 2.244 1_455 S
O71 Co70 2.223 . S
O71 C78 1.255 . S
O72 Co70 2.091 . S
O72 C78 1.261 . S
C73 O82 1.254 . S
C73 O83 1.272 . S
O74 Co70 2.004 . S
O74 C79 1.259 . S
Co75 O76 2.061 . S
Co75 O81 2.052 . S
Co75 O83 2.135 1_455 S
O76 Co75 2.061 . S
O76 C79 1.235 . S
C77 O80 1.238 . S
C77 O81 1.241 . S
C78 O71 1.255 . S
C78 O72 1.261 . S
C79 O74 1.259 . S
C79 O76 1.235 . S
O80 Co70 2.021 . S
O80 C77 1.238 . S
O81 Co75 2.052 . S
O81 C77 1.241 . S
O82 Co70 2.129 1_655 S
O82 C73 1.254 . S
O83 Co70 2.244 1_655 S
O83 C73 1.272 . S
O83 Co75 2.135 1_655 S
Co84 O85 2.223 . S
Co84 O86 2.091 . S
Co84 O88 2.004 . S
Co84 O94 2.021 . S
Co84 O96 2.129 1_545 S
Co84 O97 2.244 1_545 S
O85 Co84 2.223 . S
O85 C92 1.255 . S
O86 Co84 2.091 . S
O86 C92 1.261 . S
C87 O96 1.254 . S
C87 O97 1.272 . S
O88 Co84 2.004 . S
O88 C93 1.259 . S
Co89 O90 2.061 . S
Co89 O95 2.052 . S
Co89 O97 2.135 1_545 S
O90 Co89 2.061 . S
O90 C93 1.235 . S
C91 O94 1.238 . S
C91 O95 1.241 . S
C92 O85 1.255 . S
C92 O86 1.261 . S
C93 O88 1.259 . S
C93 O90 1.235 . S
O94 Co84 2.021 . S
O94 C91 1.238 . S
O95 Co89 2.052 . S
O95 C91 1.241 . S
O96 Co84 2.129 1_565 S
O96 C87 1.254 . S
O97 Co84 2.244 1_565 S
O97 C87 1.272 . S
O97 Co89 2.135 1_565 S
Co98 O99 2.216 . S
Co98 O100 2.091 . S
Co98 O102 2.004 . S
Co98 O108 2.021 . S
Co98 O110 2.137 . S
Co98 O111 2.244 . S
O99 Co98 2.216 . S
O99 C106 1.247 . S
O100 Co98 2.091 . S
O100 C106 1.261 . S
C101 O110 1.247 . S
C101 O111 1.272 . S
O102 Co98 2.004 . S
O102 C107 1.259 . S
Co103 O104 2.061 . S
Co103 O109 2.052 . S
Co103 O111 2.135 . S
O104 Co103 2.061 . S
O104 C107 1.235 . S
C105 O108 1.238 . S
C105 O109 1.241 . S
C106 O99 1.247 . S
C106 O100 1.261 . S
C107 O102 1.259 . S
C107 O104 1.235 . S
O108 Co98 2.021 . S
O108 C105 1.238 . S
O109 Co103 2.052 . S
O109 C105 1.241 . S
O110 Co98 2.137 . S
O110 C101 1.247 . S
O111 Co98 2.244 . S
O111 C101 1.272 . S
O111 Co103 2.135 . S
H112 C118 0.930 . S
H113 C121 0.930 . S
H114 C122 0.930 . S
H115 C123 0.930 . S
H116 C126 0.930 . S
H117 C127 0.930 . S
C118 H112 0.930 . S
C118 C119 1.355 . S
C118 C120 1.415 . S
C119 C118 1.355 . S
C119 C121 1.419 . S
C120 C118 1.415 . S
C120 C125 1.425 1_554 S
C120 C127 1.409 1_554 S
C121 H113 0.930 . S
C121 C119 1.419 . S
C121 C122 1.362 . S
C122 H114 0.930 . S
C122 C121 1.362 . S
C122 C125 1.409 1_554 S
C123 H115 0.930 . S
C123 C124 1.355 . S
C123 C125 1.415 . S
C124 C123 1.355 . S
C124 C126 1.419 . S
C125 C120 1.425 1_556 S
C125 C122 1.409 1_556 S
C125 C123 1.415 . S
C126 H116 0.930 . S
C126 C124 1.419 . S
C126 C127 1.362 . S
C127 H117 0.930 . S
C127 C120 1.409 1_556 S
C127 C126 1.362 . S
H128 C134 0.930 . S
H129 C137 0.930 . S
H130 C138 0.930 . S
H131 C139 0.930 . S
H132 C142 0.930 . S
H133 C143 0.930 . S
C134 H128 0.930 . S
C134 C135 1.355 . S
C134 C136 1.415 . S
C135 C134 1.355 . S
C135 C137 1.419 . S
C136 C134 1.415 . S
C136 C141 1.425 . S
C136 C143 1.409 . S
C137 H129 0.930 . S
C137 C135 1.419 . S
C137 C138 1.362 . S
C138 H130 0.930 . S
C138 C137 1.362 . S
C138 C141 1.409 . S
C139 H131 0.930 . S
C139 C140 1.355 . S
C139 C141 1.415 . S
C140 C139 1.355 . S
C140 C142 1.419 . S
C141 C136 1.425 . S
C141 C138 1.409 . S
C141 C139 1.415 . S
C142 H132 0.930 . S
C142 C140 1.419 . S
C142 C143 1.362 . S
C143 H133 0.930 . S
C143 C136 1.409 . S
C143 C142 1.362 . S
H144 C150 0.930 . S
H145 C153 0.928 1_565 S
H146 C154 0.930 1_565 S
H147 C155 0.930 . S
H148 C158 0.930 . S
H149 C159 0.930 . S
C150 H144 0.930 . S
C150 C151 1.355 . S
C150 C152 1.415 . S
C151 C150 1.355 . S
C151 C153 1.419 . S
C152 C150 1.415 . S
C152 C157 1.425 1_556 S
C152 C159 1.409 1_556 S
C153 H145 0.928 1_545 S
C153 C151 1.419 . S
C153 C154 1.362 . S
C154 H146 0.930 1_545 S
C154 C153 1.362 . S
C154 C157 1.409 1_556 S
C155 H147 0.930 . S
C155 C156 1.355 . S
C155 C157 1.415 . S
C156 C155 1.355 . S
C156 C158 1.419 . S
C157 C152 1.425 1_554 S
C157 C154 1.409 1_554 S
C157 C155 1.415 . S
C158 H148 0.930 . S
C158 C156 1.419 . S
C158 C159 1.362 . S
C159 H149 0.930 . S
C159 C152 1.409 1_554 S
C159 C158 1.362 . S
H160 C166 0.930 . S
H161 C169 0.930 . S
H162 C170 0.930 . S
H163 C171 0.930 . S
H164 C174 0.930 1_655 S
H165 C175 0.930 1_655 S
C166 H160 0.930 . S
C166 C167 1.355 . S
C166 C168 1.415 . S
C167 C166 1.355 . S
C167 C169 1.419 . S
C168 C166 1.415 . S
C168 C173 1.425 . S
C168 C175 1.409 . S
C169 H161 0.930 . S
C169 C167 1.419 . S
C169 C170 1.362 . S
C170 H162 0.930 . S
C170 C169 1.362 . S
C170 C173 1.409 . S
C171 H163 0.930 . S
C171 C172 1.355 . S
C171 C173 1.415 . S
C172 C171 1.355 . S
C172 C174 1.419 . S
C173 C168 1.425 . S
C173 C170 1.409 . S
C173 C171 1.415 . S
C174 H164 0.930 1_455 S
C174 C172 1.419 . S
C174 C175 1.362 . S
C175 H165 0.930 1_455 S
C175 C168 1.409 . S
C175 C174 1.362 . S
H176 C182 0.930 . S
H177 C185 0.930 . S
H178 C186 0.930 . S
H179 C187 0.930 . S
H180 C190 0.930 . S
H181 C191 0.930 . S
C182 H176 0.930 . S
C182 C183 1.355 . S
C182 C184 1.415 . S
C183 C182 1.355 . S
C183 C185 1.419 1_545 S
C184 C182 1.415 . S
C184 C189 1.425 . S
C184 C191 1.409 . S
C185 H177 0.930 . S
C185 C183 1.419 1_565 S
C185 C186 1.362 . S
C186 H178 0.930 . S
C186 C185 1.362 . S
C186 C189 1.409 1_565 S
C187 H179 0.930 . S
C187 C188 1.355 . S
C187 C189 1.415 . S
C188 C187 1.355 . S
C188 C190 1.419 . S
C189 C184 1.425 . S
C189 C186 1.409 1_545 S
C189 C187 1.415 . S
C190 H180 0.930 . S
C190 C188 1.419 . S
C190 C191 1.362 . S
C191 H181 0.930 . S
C191 C184 1.409 . S
C191 C190 1.362 . S
H192 C198 0.930 . S
H193 C201 0.930 . S
H194 C202 0.930 1_655 S
H195 C203 0.930 1_655 S
H196 C206 0.930 . S
H197 C207 0.930 . S
C198 H192 0.930 . S
C198 C199 1.355 . S
C198 C200 1.415 . S
C199 C198 1.355 . S
C199 C201 1.419 . S
C200 C198 1.415 . S
C200 C205 1.425 . S
C200 C207 1.409 . S
C201 H193 0.930 . S
C201 C199 1.419 . S
C201 C202 1.362 . S
C202 H194 0.930 1_455 S
C202 C201 1.362 . S
C202 C205 1.409 . S
C203 H195 0.930 1_455 S
C203 C204 1.355 . S
C203 C205 1.415 . S
C204 C203 1.355 . S
C204 C206 1.419 . S
C205 C200 1.425 . S
C205 C202 1.409 . S
C205 C203 1.415 . S
C206 H196 0.930 . S
C206 C204 1.419 . S
C206 C207 1.362 . S
C207 H197 0.930 . S
C207 C200 1.409 . S
C207 C206 1.362 . S
H208 C214 0.930 1_565 S
H209 C217 0.930 . S
H210 C218 0.930 . S
H211 C219 0.930 . S
H212 C222 0.930 . S
H213 C223 0.930 1_565 S
C214 H208 0.930 1_545 S
C214 C215 1.355 . S
C214 C216 1.415 . S
C215 C214 1.355 . S
C215 C217 1.419 . S
C216 C214 1.415 . S
C216 C221 1.425 . S
C216 C223 1.409 . S
C217 H209 0.930 . S
C217 C215 1.419 . S
C217 C218 1.362 . S
C218 H210 0.930 . S
C218 C217 1.362 . S
C218 C221 1.409 . S
C219 H211 0.930 . S
C219 C220 1.355 . S
C219 C221 1.415 . S
C220 C219 1.355 . S
C220 C222 1.419 . S
C221 C216 1.425 . S
C221 C218 1.409 . S
C221 C219 1.415 . S
C222 H212 0.930 . S
C222 C220 1.419 . S
C222 C223 1.362 . S
C223 H213 0.930 1_545 S
C223 C216 1.409 . S
C223 C222 1.362 . S
H224 C230 0.930 1_655 S
H225 C233 0.930 . S
H226 C234 0.930 . S
H227 C235 0.930 . S
H228 C238 0.930 . S
H229 C239 0.930 . S
C230 H224 0.930 1_455 S
C230 C231 1.355 . S
C230 C232 1.415 . S
C231 C230 1.355 . S
C231 C233 1.419 . S
C232 C230 1.415 . S
C232 C237 1.425 . S
C232 C239 1.409 . S
C233 H225 0.930 . S
C233 C231 1.419 . S
C233 C234 1.362 . S
C234 H226 0.930 . S
C234 C233 1.362 . S
C234 C237 1.409 . S
C235 H227 0.930 . S
C235 C236 1.355 . S
C235 C237 1.415 . S
C236 C235 1.355 . S
C236 C238 1.419 . S
C237 C232 1.425 . S
C237 C234 1.409 . S
C237 C235 1.415 . S
C238 H228 0.930 . S
C238 C236 1.419 . S
C238 C239 1.362 . S
C239 H229 0.930 . S
C239 C232 1.409 . S
C239 C238 1.362 . S
H240 C246 0.930 . S
H241 C249 0.930 . S
H242 C250 0.930 . S
H243 C251 0.930 . S
H244 C254 0.930 . S
H245 C255 0.930 . S
C246 H240 0.930 . S
C246 C247 1.355 . S
C246 C248 1.415 . S
C247 C246 1.355 . S
C247 C249 1.419 . S
C248 C246 1.415 . S
C248 C253 1.425 . S
C248 C255 1.409 . S
C249 H241 0.930 . S
C249 C247 1.419 . S
C249 C250 1.362 . S
C250 H242 0.930 . S
C250 C249 1.362 . S
C250 C253 1.409 . S
C251 H243 0.930 . S
C251 C252 1.355 . S
C251 C253 1.415 . S
C252 C251 1.355 . S
C252 C254 1.419 . S
C253 C248 1.425 . S
C253 C250 1.409 . S
C253 C251 1.415 . S
C254 H244 0.930 . S
C254 C252 1.419 . S
C254 C255 1.362 . S
C255 H245 0.930 . S
C255 C248 1.409 . S
C255 C254 1.362 . S
H256 C262 0.930 . S
H257 C265 0.930 . S
H258 C266 0.930 . S
H259 C267 0.930 . S
H260 C270 0.930 . S
H261 C271 0.930 . S
C262 H256 0.930 . S
C262 C263 1.355 . S
C262 C264 1.415 . S
C263 C262 1.355 . S
C263 C265 1.419 1_655 S
C264 C262 1.415 . S
C264 C269 1.425 . S
C264 C271 1.409 . S
C265 H257 0.930 . S
C265 C263 1.419 1_455 S
C265 C266 1.362 1_455 S
C266 H258 0.930 . S
C266 C265 1.362 1_655 S
C266 C269 1.409 . S
C267 H259 0.930 . S
C267 C268 1.355 . S
C267 C269 1.415 . S
C268 C267 1.355 . S
C268 C270 1.419 . S
C269 C264 1.425 . S
C269 C266 1.409 . S
C269 C267 1.415 . S
C270 H260 0.930 . S
C270 C268 1.419 . S
C270 C271 1.362 . S
C271 H261 0.930 . S
C271 C264 1.409 . S
C271 C270 1.362 . S
H272 C278 0.930 . S
H273 C281 0.930 . S
H274 C282 0.930 . S
H275 C283 0.930 . S
H276 C286 0.930 . S
H277 C287 0.930 . S
C278 H272 0.930 . S
C278 C279 1.355 . S
C278 C280 1.415 . S
C279 C278 1.355 . S
C279 C281 1.419 . S
C280 C278 1.415 . S
C280 C285 1.425 . S
C280 C287 1.409 . S
C281 H273 0.930 . S
C281 C279 1.419 . S
C281 C282 1.362 . S
C282 H274 0.930 . S
C282 C281 1.362 . S
C282 C285 1.409 . S
C283 H275 0.930 . S
C283 C284 1.355 . S
C283 C285 1.415 . S
C284 C283 1.355 . S
C284 C286 1.419 1_565 S
C285 C280 1.425 . S
C285 C282 1.409 . S
C285 C283 1.415 . S
C286 H276 0.930 . S
C286 C284 1.419 1_545 S
C286 C287 1.362 1_545 S
C287 H277 0.930 . S
C287 C280 1.409 . S
C287 C286 1.362 1_565 S
H288 C294 0.930 . S
H289 C297 0.930 . S
H290 C298 0.930 . S
H291 C299 0.930 . S
H292 C302 0.930 1_545 S
H293 C303 0.930 . S
C294 H288 0.930 . S
C294 C295 1.355 . S
C294 C296 1.415 . S
C295 C294 1.355 . S
C295 C297 1.419 . S
C296 C294 1.415 . S
C296 C301 1.425 . S
C296 C303 1.409 . S
C297 H289 0.930 . S
C297 C295 1.419 . S
C297 C298 1.362 . S
C298 H290 0.930 . S
C298 C297 1.362 . S
C298 C301 1.409 . S
C299 H291 0.930 . S
C299 C300 1.355 . S
C299 C301 1.415 . S
C300 C299 1.355 . S
C300 C302 1.419 . S
C301 C296 1.425 . S
C301 C298 1.409 . S
C301 C299 1.415 . S
C302 H292 0.930 1_565 S
C302 C300 1.419 . S
C302 C303 1.362 . S
C303 H293 0.930 . S
C303 C296 1.409 . S
C303 C302 1.362 . S
H304 C310 0.930 . S
H305 C313 0.930 . S
H306 C314 0.930 . S
H307 C315 0.930 . S
H308 C318 0.930 . S
H309 C319 0.930 . S
C310 H304 0.930 . S
C310 C311 1.355 . S
C310 C312 1.415 . S
C311 C310 1.355 . S
C311 C313 1.419 . S
C312 C310 1.415 . S
C312 C317 1.425 . S
C312 C319 1.409 . S
C313 H305 0.930 . S
C313 C311 1.419 . S
C313 C314 1.362 . S
C314 H306 0.930 . S
C314 C313 1.362 . S
C314 C317 1.409 . S
C315 H307 0.930 . S
C315 C316 1.355 . S
C315 C317 1.415 . S
C316 C315 1.355 . S
C316 C318 1.419 . S
C317 C312 1.425 . S
C317 C314 1.409 . S
C317 C315 1.415 . S
C318 H308 0.930 . S
C318 C316 1.419 . S
C318 C319 1.362 . S
C319 H309 0.930 . S
C319 C312 1.409 . S
C319 C318 1.362 . S
H320 C326 0.930 . S
H321 C329 0.930 . S
H322 C330 0.930 . S
H323 C331 0.930 . S
H324 C334 0.930 . S
H325 C335 0.930 . S
C326 H320 0.930 . S
C326 C327 1.355 . S
C326 C328 1.415 . S
C327 C326 1.355 . S
C327 C329 1.419 . S
C328 C326 1.415 . S
C328 C333 1.425 . S
C328 C335 1.409 . S
C329 H321 0.930 . S
C329 C327 1.419 . S
C329 C330 1.362 . S
C330 H322 0.930 . S
C330 C329 1.362 . S
C330 C333 1.409 . S
C331 H323 0.930 . S
C331 C332 1.355 . S
C331 C333 1.415 . S
C332 C331 1.355 . S
C332 C334 1.419 . S
C333 C328 1.425 . S
C333 C330 1.409 . S
C333 C331 1.415 . S
C334 H324 0.930 . S
C334 C332 1.419 . S
C334 C335 1.362 . S
C335 H325 0.930 . S
C335 C328 1.409 . S
C335 C334 1.362 . S
H336 C342 0.930 . S
H337 C345 0.930 . S
H338 C346 0.930 . S
H339 C347 0.930 . S
H340 C350 0.930 . S
H341 C351 0.930 . S
C342 H336 0.930 . S
C342 C343 1.355 . S
C342 C344 1.415 . S
C343 C342 1.355 . S
C343 C345 1.419 . S
C344 C342 1.415 . S
C344 C349 1.425 . S
C344 C351 1.409 . S
C345 H337 0.930 . S
C345 C343 1.419 . S
C345 C346 1.362 . S
C346 H338 0.930 . S
C346 C345 1.362 . S
C346 C349 1.409 . S
C347 H339 0.930 . S
C347 C348 1.355 . S
C347 C349 1.415 . S
C348 C347 1.355 . S
C348 C350 1.419 . S
C349 C344 1.425 . S
C349 C346 1.409 . S
C349 C347 1.415 . S
C350 H340 0.930 . S
C350 C348 1.419 . S
C350 C351 1.362 . S
C351 H341 0.930 . S
C351 C344 1.409 . S
C351 C350 1.362 . S
H352 C358 0.930 . S
H353 C361 0.930 . S
H354 C362 0.930 . S
H355 C363 0.930 . S
H356 C366 0.930 . S
H357 C367 0.930 . S
C358 H352 0.930 . S
C358 C359 1.355 . S
C358 C360 1.415 . S
C359 C358 1.355 . S
C359 C361 1.419 . S
C360 C358 1.415 . S
C360 C365 1.425 . S
C360 C367 1.409 . S
C361 H353 0.930 . S
C361 C359 1.419 . S
C361 C362 1.362 . S
C362 H354 0.930 . S
C362 C361 1.362 . S
C362 C365 1.409 . S
C363 H355 0.930 . S
C363 C364 1.355 . S
C363 C365 1.415 . S
C364 C363 1.355 . S
C364 C366 1.419 . S
C365 C360 1.425 . S
C365 C362 1.409 . S
C365 C363 1.415 . S
C366 H356 0.930 . S
C366 C364 1.419 . S
C366 C367 1.362 . S
C367 H357 0.930 . S
C367 C360 1.409 . S
C367 C366 1.362 . S
C119 C7 1.509 . S
C124 C63 1.557 . S
C135 C21 1.509 . S
C140 C77 1.557 . S
C151 C91 1.503 . S
C156 C35 1.543 . S
C167 C105 1.503 . S
C172 C49 1.542 . S
C183 C8 1.386 . S
C188 C36 1.388 . S
C199 C22 1.323 . S
C204 C50 1.325 . S
C215 C92 1.324 . S
C220 C64 1.322 . S
C231 C78 1.347 . S
C236 C106 1.338 . S
C247 C79 1.452 . S
C252 C9 1.489 . S
C263 C23 1.450 1_655 S
C268 C93 1.487 . S
C279 C107 1.489 1_655 S
C284 C37 1.449 1_565 S
C295 C51 1.488 . S
C300 C65 1.453 1_565 S
C311 C87 1.264 . S
C316 C45 1.225 . S
C327 C3 1.260 . S
C332 C101 1.222 . S
C343 C17 1.220 . S
C348 C59 1.251 . S
C359 C73 1.224 . S
C364 C31 1.235 . S
