# Generated by pormake.
# Topology dft, (4)-cn, num edge types: 1
# Building blocks:
#     Node 0, Type 0, BuildingBlock: QUQFOY_clean_sbu_3, # of connection points: 4
#     Node 1, Type 0, BuildingBlock: QUQFOY_clean_sbu_3, # of connection points: 4
#     Node 2, Type 0, BuildingBlock: QUQFOY_clean_sbu_3, # of connection points: 4
#     Node 3, Type 0, BuildingBlock: QUQFOY_clean_sbu_3, # of connection points: 4
#     Node 4, Type 0, BuildingBlock: QUQFOY_clean_sbu_3, # of connection points: 4
#     Node 5, Type 0, BuildingBlock: QUQFOY_clean_sbu_3, # of connection points: 4
#     Node 6, Type 0, BuildingBlock: QUQFOY_clean_sbu_3, # of connection points: 4
#     Node 7, Type 0, BuildingBlock: QUQFOY_clean_sbu_3, # of connection points: 4
#     Edge 8, Type (0, 0), None
#     Edge 9, Type (0, 0), None
#     Edge 10, Type (0, 0), None
#     Edge 11, Type (0, 0), None
#     Edge 12, Type (0, 0), None
#     Edge 13, Type (0, 0), None
#     Edge 14, Type (0, 0), None
#     Edge 15, Type (0, 0), None
#     Edge 16, Type (0, 0), None
#     Edge 17, Type (0, 0), None
#     Edge 18, Type (0, 0), None
#     Edge 19, Type (0, 0), None
#     Edge 20, Type (0, 0), None
#     Edge 21, Type (0, 0), None
#     Edge 22, Type (0, 0), None
#     Edge 23, Type (0, 0), None
# Relax obj value: 0.179
# Max RMSD: 0.171
# Mean RMSD: 0.171
data_MOF--net-dft--node1-QUQFOY_clean_sbu_3--edge1-none
_symmetry_space_group_name_H-M    P1
_symmetry_Int_Tables_number       1
_symmetry_cell_setting            triclinic
loop_
_symmetry_equiv_pos_as_xyz
'x, y, z'
_cell_length_a     17.954379
_cell_length_b     17.954324
_cell_length_c     18.98711
_cell_angle_alpha  89.998976
_cell_angle_beta   90.001023
_cell_angle_gamma 89.999912
loop_
_atom_site_label
_atom_site_type_symbol
_atom_site_fract_x
_atom_site_fract_y
_atom_site_fract_z
_atom_type_partial_charge
C0 C 0.1733 0.87156 0.20304 0.0
O1 O 0.14267 0.8794 0.14339 0.0
Cd2 Cd 0.17328 -0.01701 0.07462 0.0
O3 O 0.22775 0.9127 0.22215 0.0
Cd4 Cd 0.3106 0.00805 0.16776 0.0
C5 C 0.16563 0.11849 0.20674 0.0
O6 O 0.30006 -0.04956 0.05391 0.0
O7 O 0.32596 0.06672 0.04934 0.0
O8 O 0.42339 0.94373 0.20657 0.0
C9 C 0.32272 0.00444 0.01775 0.0
O10 O 0.13633 0.08829 0.15267 0.0
C11 C 0.46102 0.00293 0.2152 0.0
O12 O 0.23012 0.09914 0.22732 0.0
O13 O 0.42681 0.06432 0.20806 0.0
C14 C 0.13204 0.17328 0.70303 0.0
O15 O 0.1242 0.14264 0.64338 0.0
Cd16 Cd 0.02061 0.17327 0.57461 0.0
O17 O 0.0909 0.22773 0.72214 0.0
Cd18 Cd -0.00444 0.31058 0.66775 0.0
C19 C 0.88511 0.16561 0.70673 0.0
O20 O 0.05317 0.30005 0.5539 0.0
O21 O 0.93689 0.32596 0.54933 0.0
O22 O 0.05988 0.42336 0.70656 0.0
C23 C -0.00084 0.32271 0.51775 0.0
O24 O 0.91531 0.13632 0.65266 0.0
C25 C 0.00068 0.461 0.7152 0.0
O26 O 0.90447 0.2301 0.72731 0.0
O27 O 0.93929 0.42679 0.70806 0.0
C28 C 0.83033 0.13206 0.20302 0.0
O29 O 0.86096 0.12422 0.14337 0.0
Cd30 Cd 0.83034 0.02063 0.07461 0.0
O31 O 0.77587 0.09093 0.22213 0.0
Cd32 Cd 0.69302 -0.00442 0.16775 0.0
C33 C 0.838 0.88514 0.20674 0.0
O34 O 0.70356 0.05318 0.05389 0.0
O35 O 0.67765 0.9369 0.04934 0.0
O36 O 0.58024 0.05992 0.20655 0.0
C37 C 0.68089 -0.00083 0.01775 0.0
O38 O 0.86728 0.91532 0.15266 0.0
C39 C 0.54261 0.00071 0.21518 0.0
O40 O 0.7735 0.9045 0.22732 0.0
O41 O 0.57682 0.93931 0.20807 0.0
C42 C 0.87154 0.8303 0.70303 0.0
O43 O 0.87938 0.86094 0.64338 0.0
Cd44 Cd -0.01703 0.83032 0.57462 0.0
O45 O 0.91268 0.77585 0.72214 0.0
Cd46 Cd 0.00803 0.69301 0.66776 0.0
C47 C 0.11847 0.83798 0.70675 0.0
O48 O -0.04957 0.70354 0.5539 0.0
O49 O 0.06671 0.67764 0.54935 0.0
O50 O 0.94369 0.58022 0.70656 0.0
C51 C 0.00444 0.68089 0.51775 0.0
O52 O 0.08827 0.86727 0.65268 0.0
C53 C 0.0029 0.54259 0.71518 0.0
O54 O 0.09911 0.77348 0.72733 0.0
O55 O 0.0643 0.5768 0.70807 0.0
C56 C 0.1733 0.13205 0.75576 0.0
O57 O 0.14264 0.12419 0.8154 0.0
Cd58 Cd 0.17324 0.02059 0.88415 0.0
O59 O 0.22773 0.0909 0.73662 0.0
Cd60 Cd 0.31058 -0.00447 0.791 0.0
C61 C 0.1656 0.8851 0.75203 0.0
O62 O 0.30002 0.05313 0.90486 0.0
O63 O 0.32598 0.93684 0.90941 0.0
O64 O 0.42336 0.05988 0.7522 0.0
C65 C 0.32267 -0.00089 0.941 0.0
O66 O 0.1363 0.9153 0.80609 0.0
C67 C 0.461 0.00068 0.74355 0.0
O68 O 0.23009 0.90445 0.73143 0.0
O69 O 0.42679 0.93928 0.75068 0.0
C70 C 0.87155 0.17333 0.25575 0.0
O71 O 0.87941 0.14267 0.31539 0.0
Cd72 Cd -0.01699 0.17325 0.38414 0.0
O73 O 0.91271 0.22776 0.23661 0.0
Cd74 Cd 0.00807 0.3106 0.29099 0.0
C75 C 0.1185 0.16562 0.25202 0.0
O76 O -0.04952 0.30004 0.40485 0.0
O77 O 0.06677 0.32599 0.4094 0.0
O78 O 0.94373 0.42338 0.25219 0.0
C79 C 0.0045 0.32267 0.44099 0.0
O80 O 0.0883 0.13632 0.30607 0.0
C81 C 0.00293 0.46103 0.24355 0.0
O82 O 0.09916 0.23012 0.23142 0.0
O83 O 0.06432 0.42681 0.25068 0.0
C84 C 0.83028 0.87153 0.75576 0.0
O85 O 0.86094 0.87939 0.8154 0.0
Cd86 Cd 0.83035 -0.01701 0.88415 0.0
O87 O 0.77585 0.91268 0.73662 0.0
Cd88 Cd 0.69301 0.00805 0.79099 0.0
C89 C 0.83798 0.11848 0.75201 0.0
O90 O 0.70357 -0.04953 0.90486 0.0
O91 O 0.67762 0.06676 0.90939 0.0
O92 O 0.58022 0.9437 0.7522 0.0
C93 C 0.68093 0.0045 0.94099 0.0
O94 O 0.86728 0.08829 0.80607 0.0
C95 C 0.54259 0.0029 0.74357 0.0
O96 O 0.77349 0.09913 0.73141 0.0
O97 O 0.57679 0.06431 0.75067 0.0
C98 C 0.13207 0.8303 0.25577 0.0
O99 O 0.12421 0.86096 0.31541 0.0
Cd100 Cd 0.02061 0.83037 0.38416 0.0
O101 O 0.09092 0.77587 0.23663 0.0
Cd102 Cd -0.00445 0.69303 0.291 0.0
C103 C 0.88512 0.83801 0.25202 0.0
O104 O 0.05313 0.70359 0.40487 0.0
O105 O 0.93684 0.67762 0.4094 0.0
O106 O 0.05991 0.58025 0.25221 0.0
C107 C -0.00089 0.68094 0.441 0.0
O108 O 0.91531 0.8673 0.30608 0.0
C109 C 0.0007 0.54261 0.24357 0.0
O110 O 0.90448 0.77352 0.23142 0.0
O111 O 0.9393 0.57682 0.25067 0.0
loop_
_geom_bond_atom_site_label_1
_geom_bond_atom_site_label_2
_geom_bond_distance
_geom_bond_site_symmetry_2
_ccdc_geom_bond_type
C0 O1 1.306 . S
C0 O3 1.160 . S
O1 C0 1.306 . S
O1 Cd2 2.223 1_565 S
Cd2 O1 2.223 1_545 S
Cd2 O6 2.274 . S
Cd2 O10 2.283 . S
O3 C0 1.160 . S
O3 Cd4 2.203 1_565 S
Cd4 O3 2.203 1_545 S
Cd4 O6 2.411 . S
Cd4 O7 2.333 . S
Cd4 O8 2.352 1_545 S
Cd4 O12 2.277 . S
Cd4 O13 2.356 . S
C5 O10 1.209 . S
C5 O12 1.226 . S
O6 Cd2 2.274 . S
O6 Cd4 2.411 . S
O6 C9 1.320 . S
O7 Cd4 2.333 . S
O7 C9 1.214 . S
O8 Cd4 2.352 1_565 S
O8 C11 1.258 1_565 S
C9 O6 1.320 . S
C9 O7 1.214 . S
O10 Cd2 2.283 . S
O10 C5 1.209 . S
C11 O8 1.258 1_545 S
C11 O13 1.282 . S
O12 Cd4 2.277 . S
O12 C5 1.226 . S
O13 Cd4 2.356 . S
O13 C11 1.282 . S
C14 O15 1.306 . S
C14 O17 1.160 . S
O15 C14 1.306 . S
O15 Cd16 2.228 . S
Cd16 O15 2.228 . S
Cd16 O20 2.273 . S
Cd16 O24 2.277 . S
O17 C14 1.160 . S
O17 Cd18 2.203 . S
Cd18 O17 2.203 . S
Cd18 O20 2.411 . S
Cd18 O21 2.333 1_455 S
Cd18 O22 2.352 . S
Cd18 O26 2.277 1_455 S
Cd18 O27 2.356 . S
C19 O24 1.209 1_655 S
C19 O26 1.226 . S
O20 Cd16 2.273 . S
O20 Cd18 2.411 . S
O20 C23 1.320 . S
O21 Cd18 2.333 1_655 S
O21 C23 1.214 1_655 S
O22 Cd18 2.352 . S
O22 C25 1.258 . S
C23 O20 1.320 . S
C23 O21 1.214 1_455 S
O24 Cd16 2.277 . S
O24 C19 1.209 1_455 S
C25 O22 1.258 . S
C25 O27 1.282 . S
O26 Cd18 2.277 1_655 S
O26 C19 1.226 . S
O27 Cd18 2.356 . S
O27 C25 1.282 . S
C28 O29 1.306 . S
C28 O31 1.160 . S
O29 C28 1.306 . S
O29 Cd30 2.228 . S
Cd30 O29 2.228 . S
Cd30 O34 2.273 . S
Cd30 O38 2.277 . S
O31 C28 1.160 . S
O31 Cd32 2.203 . S
Cd32 O31 2.203 . S
Cd32 O34 2.411 . S
Cd32 O35 2.333 1_545 S
Cd32 O36 2.352 . S
Cd32 O40 2.277 1_545 S
Cd32 O41 2.356 . S
C33 O38 1.209 1_565 S
C33 O40 1.226 . S
O34 Cd30 2.273 . S
O34 Cd32 2.411 . S
O34 C37 1.320 . S
O35 Cd32 2.333 1_565 S
O35 C37 1.214 1_565 S
O36 Cd32 2.352 . S
O36 C39 1.258 . S
C37 O34 1.320 . S
C37 O35 1.214 1_545 S
O38 Cd30 2.277 . S
O38 C33 1.209 1_545 S
C39 O36 1.258 . S
C39 O41 1.282 . S
O40 Cd32 2.277 1_565 S
O40 C33 1.226 . S
O41 Cd32 2.356 . S
O41 C39 1.282 . S
C42 O43 1.306 . S
C42 O45 1.160 . S
O43 C42 1.306 . S
O43 Cd44 2.223 1_655 S
Cd44 O43 2.223 1_455 S
Cd44 O48 2.274 . S
Cd44 O52 2.283 . S
O45 C42 1.160 . S
O45 Cd46 2.203 1_655 S
Cd46 O45 2.203 1_455 S
Cd46 O48 2.411 . S
Cd46 O49 2.333 . S
Cd46 O50 2.352 1_455 S
Cd46 O54 2.277 . S
Cd46 O55 2.356 . S
C47 O52 1.209 . S
C47 O54 1.226 . S
O48 Cd44 2.274 . S
O48 Cd46 2.411 . S
O48 C51 1.320 . S
O49 Cd46 2.333 . S
O49 C51 1.214 . S
O50 Cd46 2.352 1_655 S
O50 C53 1.258 1_655 S
C51 O48 1.320 . S
C51 O49 1.214 . S
O52 Cd44 2.283 . S
O52 C47 1.209 . S
C53 O50 1.258 1_455 S
C53 O55 1.282 . S
O54 Cd46 2.277 . S
O54 C47 1.226 . S
O55 Cd46 2.356 . S
O55 C53 1.282 . S
C56 O57 1.306 . S
C56 O59 1.160 . S
O57 C56 1.306 . S
O57 Cd58 2.228 . S
Cd58 O57 2.228 . S
Cd58 O62 2.273 . S
Cd58 O66 2.277 . S
O59 C56 1.160 . S
O59 Cd60 2.203 . S
Cd60 O59 2.203 . S
Cd60 O62 2.411 . S
Cd60 O63 2.333 1_545 S
Cd60 O64 2.352 . S
Cd60 O68 2.277 1_545 S
Cd60 O69 2.356 . S
C61 O66 1.209 1_565 S
C61 O68 1.226 . S
O62 Cd58 2.273 . S
O62 Cd60 2.411 . S
O62 C65 1.320 . S
O63 Cd60 2.333 1_565 S
O63 C65 1.214 1_565 S
O64 Cd60 2.352 . S
O64 C67 1.258 . S
C65 O62 1.320 . S
C65 O63 1.214 1_545 S
O66 Cd58 2.277 . S
O66 C61 1.209 1_545 S
C67 O64 1.258 . S
C67 O69 1.282 . S
O68 Cd60 2.277 1_565 S
O68 C61 1.226 . S
O69 Cd60 2.356 . S
O69 C67 1.282 . S
C70 O71 1.306 . S
C70 O73 1.160 . S
O71 C70 1.306 . S
O71 Cd72 2.223 1_655 S
Cd72 O71 2.223 1_455 S
Cd72 O76 2.274 . S
Cd72 O80 2.283 . S
O73 C70 1.160 . S
O73 Cd74 2.203 1_655 S
Cd74 O73 2.203 1_455 S
Cd74 O76 2.411 . S
Cd74 O77 2.333 . S
Cd74 O78 2.352 1_455 S
Cd74 O82 2.277 . S
Cd74 O83 2.356 . S
C75 O80 1.209 . S
C75 O82 1.226 . S
O76 Cd72 2.274 . S
O76 Cd74 2.411 . S
O76 C79 1.320 . S
O77 Cd74 2.333 . S
O77 C79 1.214 . S
O78 Cd74 2.352 1_655 S
O78 C81 1.258 1_655 S
C79 O76 1.320 . S
C79 O77 1.214 . S
O80 Cd72 2.283 . S
O80 C75 1.209 . S
C81 O78 1.258 1_455 S
C81 O83 1.282 . S
O82 Cd74 2.277 . S
O82 C75 1.226 . S
O83 Cd74 2.356 . S
O83 C81 1.282 . S
C84 O85 1.306 . S
C84 O87 1.160 . S
O85 C84 1.306 . S
O85 Cd86 2.223 1_565 S
Cd86 O85 2.223 1_545 S
Cd86 O90 2.274 . S
Cd86 O94 2.283 . S
O87 C84 1.160 . S
O87 Cd88 2.203 1_565 S
Cd88 O87 2.203 1_545 S
Cd88 O90 2.411 . S
Cd88 O91 2.333 . S
Cd88 O92 2.352 1_545 S
Cd88 O96 2.277 . S
Cd88 O97 2.356 . S
C89 O94 1.209 . S
C89 O96 1.226 . S
O90 Cd86 2.274 . S
O90 Cd88 2.411 . S
O90 C93 1.320 . S
O91 Cd88 2.333 . S
O91 C93 1.214 . S
O92 Cd88 2.352 1_565 S
O92 C95 1.258 1_565 S
C93 O90 1.320 . S
C93 O91 1.214 . S
O94 Cd86 2.283 . S
O94 C89 1.209 . S
C95 O92 1.258 1_545 S
C95 O97 1.282 . S
O96 Cd88 2.277 . S
O96 C89 1.226 . S
O97 Cd88 2.356 . S
O97 C95 1.282 . S
C98 O99 1.306 . S
C98 O101 1.160 . S
O99 C98 1.306 . S
O99 Cd100 2.228 . S
Cd100 O99 2.228 . S
Cd100 O104 2.273 . S
Cd100 O108 2.277 . S
O101 C98 1.160 . S
O101 Cd102 2.203 . S
Cd102 O101 2.203 . S
Cd102 O104 2.411 . S
Cd102 O105 2.333 1_455 S
Cd102 O106 2.352 . S
Cd102 O110 2.277 1_455 S
Cd102 O111 2.356 . S
C103 O108 1.209 1_655 S
C103 O110 1.226 . S
O104 Cd100 2.273 . S
O104 Cd102 2.411 . S
O104 C107 1.320 . S
O105 Cd102 2.333 1_655 S
O105 C107 1.214 1_655 S
O106 Cd102 2.352 . S
O106 C109 1.258 . S
C107 O104 1.320 . S
C107 O105 1.214 1_455 S
O108 Cd100 2.277 . S
O108 C103 1.209 1_455 S
C109 O106 1.258 . S
C109 O111 1.282 . S
O110 Cd102 2.277 1_655 S
O110 C103 1.226 . S
O111 Cd102 2.356 . S
O111 C109 1.282 . S
C9 C65 1.654 1_554 S
C23 C79 1.654 . S
C93 C37 1.654 1_556 S
C107 C51 1.654 . S
C11 C39 1.608 . S
C25 C53 1.608 . S
C95 C67 1.608 . S
C81 C109 1.608 . S
C75 C5 1.561 . S
C19 C89 1.561 . S
C103 C33 1.561 . S
C47 C61 1.561 . S
C84 C42 1.335 . S
C0 C98 1.335 . S
C14 C56 1.335 . S
C70 C28 1.335 . S
