# Generated by pormake.
# Topology dft, (4)-cn, num edge types: 1
# Building blocks:
#     Node 0, Type 0, BuildingBlock: GALJAG_clean_sbu_0, # of connection points: 4
#     Node 1, Type 0, BuildingBlock: GALJAG_clean_sbu_0, # of connection points: 4
#     Node 2, Type 0, BuildingBlock: GALJAG_clean_sbu_0, # of connection points: 4
#     Node 3, Type 0, BuildingBlock: GALJAG_clean_sbu_0, # of connection points: 4
#     Node 4, Type 0, BuildingBlock: GALJAG_clean_sbu_0, # of connection points: 4
#     Node 5, Type 0, BuildingBlock: GALJAG_clean_sbu_0, # of connection points: 4
#     Node 6, Type 0, BuildingBlock: GALJAG_clean_sbu_0, # of connection points: 4
#     Node 7, Type 0, BuildingBlock: GALJAG_clean_sbu_0, # of connection points: 4
#     Edge 8, Type (0, 0), BuildingBlock: KIFKEQ_clean_linker_1, # of connection points: 2
#     Edge 9, Type (0, 0), BuildingBlock: KIFKEQ_clean_linker_1, # of connection points: 2
#     Edge 10, Type (0, 0), BuildingBlock: KIFKEQ_clean_linker_1, # of connection points: 2
#     Edge 11, Type (0, 0), BuildingBlock: KIFKEQ_clean_linker_1, # of connection points: 2
#     Edge 12, Type (0, 0), BuildingBlock: KIFKEQ_clean_linker_1, # of connection points: 2
#     Edge 13, Type (0, 0), BuildingBlock: KIFKEQ_clean_linker_1, # of connection points: 2
#     Edge 14, Type (0, 0), BuildingBlock: KIFKEQ_clean_linker_1, # of connection points: 2
#     Edge 15, Type (0, 0), BuildingBlock: KIFKEQ_clean_linker_1, # of connection points: 2
#     Edge 16, Type (0, 0), BuildingBlock: KIFKEQ_clean_linker_1, # of connection points: 2
#     Edge 17, Type (0, 0), BuildingBlock: KIFKEQ_clean_linker_1, # of connection points: 2
#     Edge 18, Type (0, 0), BuildingBlock: KIFKEQ_clean_linker_1, # of connection points: 2
#     Edge 19, Type (0, 0), BuildingBlock: KIFKEQ_clean_linker_1, # of connection points: 2
#     Edge 20, Type (0, 0), BuildingBlock: KIFKEQ_clean_linker_1, # of connection points: 2
#     Edge 21, Type (0, 0), BuildingBlock: KIFKEQ_clean_linker_1, # of connection points: 2
#     Edge 22, Type (0, 0), BuildingBlock: KIFKEQ_clean_linker_1, # of connection points: 2
#     Edge 23, Type (0, 0), BuildingBlock: KIFKEQ_clean_linker_1, # of connection points: 2
# Relax obj value: 0.096
# Max RMSD: 0.146
# Mean RMSD: 0.146
data_MOF--net-dft--node1-GALJAG_clean_sbu_0--edge1-KIFKEQ_clean_linker_1
_symmetry_space_group_name_H-M    P1
_symmetry_Int_Tables_number       1
_symmetry_cell_setting            triclinic
loop_
_symmetry_equiv_pos_as_xyz
'x, y, z'
_cell_length_a     34.208165
_cell_length_b     34.153746
_cell_length_c     45.828538
_cell_angle_alpha  89.991401
_cell_angle_beta   90.06946
_cell_angle_gamma 90.002532
loop_
_atom_site_label
_atom_site_type_symbol
_atom_site_fract_x
_atom_site_fract_y
_atom_site_fract_z
_atom_type_partial_charge
In0 In 0.3119 0.03717 0.16826 0.0
O1 O 0.37015 0.06551 0.17953 0.0
O2 O 0.37074 0.00605 0.16587 0.0
C3 C 0.26885 0.0953 0.19178 0.0
C4 C 0.30216 0.04563 0.11016 0.0
C5 C 0.28711 0.97303 0.19733 0.0
O6 O 0.30332 0.08792 0.19982 0.0
O7 O 0.25616 0.07364 0.17158 0.0
O8 O 0.2922 0.97326 0.17009 0.0
O9 O 0.29496 0.00491 0.20986 0.0
C10 C 0.39022 0.03543 0.17406 0.0
O11 O 0.28177 0.0224 0.12518 0.0
O12 O 0.32695 0.06503 0.12451 0.0
In13 In 0.04253 0.31334 0.66626 0.0
O14 O 0.01101 0.37202 0.66874 0.0
O15 O 0.07301 0.37227 0.67132 0.0
C16 C 0.9842 0.27414 0.6932 0.0
C17 C 0.04292 0.30882 0.60751 0.0
C18 C 0.10308 0.27733 0.6926 0.0
O19 O -0.00092 0.3049 0.7036 0.0
O20 O -0.00159 0.26347 0.66912 0.0
O21 O 0.08804 0.26497 0.6692 0.0
O22 O 0.08773 0.30809 0.70265 0.0
C23 C 0.04185 0.39199 0.67112 0.0
O24 O 0.07382 0.30756 0.62253 0.0
O25 O 0.01189 0.31224 0.62213 0.0
In26 In 0.76267 0.0409 0.16631 0.0
O27 O 0.70483 0.00985 0.17437 0.0
O28 O 0.70318 0.07093 0.16572 0.0
C29 C 0.8081 0.98513 0.19064 0.0
C30 C 0.76915 0.0378 0.10767 0.0
C31 C 0.79039 0.10239 0.19684 0.0
O32 O 0.77268 0.98974 0.19735 0.0
O33 O 0.82045 0.00813 0.17119 0.0
O34 O 0.79887 0.09646 0.17044 0.0
O35 O 0.76739 0.07757 0.20781 0.0
C36 C 0.68422 0.04016 0.17126 0.0
O37 O 0.77387 0.06887 0.12207 0.0
O38 O 0.76145 0.00797 0.12286 0.0
In39 In 0.0376 0.76545 0.66219 0.0
O40 O 0.00485 0.76621 0.61882 0.0
O41 O 0.06608 0.77651 0.61801 0.0
C42 C 0.97733 0.79773 0.69124 0.0
C43 C 0.03999 0.6868 0.66744 0.0
C44 C 0.09528 0.80734 0.68761 0.0
O45 O 0.98365 0.80424 0.66456 0.0
O46 O 0.00104 0.77435 0.70316 0.0
O47 O 0.09076 0.77123 0.69226 0.0
O48 O 0.07136 0.82193 0.66973 0.0
C49 C 0.03475 0.77339 0.60366 0.0
O50 O 0.01034 0.70671 0.6742 0.0
O51 O 0.06851 0.70653 0.65813 0.0
In52 In 0.3126 0.03923 0.83223 0.0
O53 O 0.3159 0.07179 0.87555 0.0
O54 O 0.29711 0.01249 0.87632 0.0
C55 C 0.28249 0.10167 0.8043 0.0
C56 C 0.39095 0.03448 0.82631 0.0
C57 C 0.2698 0.98234 0.8065 0.0
O58 O 0.27613 0.09492 0.83095 0.0
O59 O 0.30468 0.07731 0.79189 0.0
O60 O 0.30656 0.98348 0.80469 0.0
O61 O 0.255 0.00912 0.82178 0.0
C62 C 0.30445 0.04315 0.89067 0.0
O63 O 0.37111 0.0622 0.8158 0.0
O64 O 0.37128 0.00894 0.83967 0.0
In65 In 0.03179 0.31428 0.32943 0.0
O66 O 0.05627 0.37106 0.3106 0.0
O67 O 0.00721 0.37496 0.33879 0.0
C68 C 0.08883 0.27663 0.29996 0.0
C69 C 0.03828 0.30699 0.38774 0.0
C70 C 0.96738 0.27872 0.30823 0.0
O71 O 0.0631 0.29709 0.28752 0.0
O72 O 0.08624 0.27559 0.3274 0.0
O73 O 0.9911 0.26204 0.32522 0.0
O74 O 0.97579 0.31375 0.30214 0.0
C75 C 0.03189 0.39281 0.32332 0.0
O76 O 0.00838 0.29613 0.37377 0.0
O77 O 0.06525 0.32127 0.37224 0.0
In78 In 0.76366 0.03687 0.82902 0.0
O79 O 0.77474 0.00701 0.87274 0.0
O80 O 0.75902 0.0672 0.87319 0.0
C81 C 0.80129 0.97687 0.80325 0.0
C82 C 0.68522 0.03487 0.82347 0.0
C83 C 0.80167 0.09609 0.80211 0.0
O84 O 0.81453 0.9943 0.82542 0.0
O85 O 0.7688 0.98948 0.79418 0.0
O86 O 0.77408 0.07752 0.79023 0.0
O87 O 0.80963 0.08527 0.82774 0.0
C88 C 0.76787 0.03715 0.88778 0.0
O89 O 0.70455 0.06627 0.82223 0.0
O90 O 0.70549 0.00444 0.82724 0.0
In91 In 0.04687 0.76487 0.32699 0.0
O92 O 0.06411 0.79242 0.37034 0.0
O93 O 0.01226 0.75811 0.36918 0.0
C94 C 0.11304 0.78619 0.29921 0.0
C95 C 0.04925 0.68623 0.32204 0.0
C96 C 0.99076 0.81056 0.3034 0.0
O97 O 0.11017 0.7861 0.32664 0.0
O98 O 0.08299 0.77441 0.28592 0.0
O99 O 0.98678 0.77402 0.30608 0.0
O100 O 0.02244 0.82396 0.31328 0.0
C101 C 0.03562 0.77832 0.3843 0.0
O102 O 0.03189 0.70761 0.30372 0.0
O103 O 0.06588 0.70451 0.34244 0.0
H104 H 0.34778 0.08813 0.07321 0.0
H105 H 0.24927 0.00904 0.07482 0.0
H106 H 0.34573 0.0888 0.02011 0.0
H107 H 0.2464 0.01056 0.02162 0.0
H108 H 0.28718 0.98357 0.92809 0.0
H109 H 0.28394 0.9862 0.98117 0.0
H110 H 0.30876 0.11027 0.97856 0.0
H111 H 0.31315 0.10728 0.9255 0.0
C112 C 0.32533 0.07131 0.06219 0.0
C113 C 0.2988 0.04839 0.07812 0.0
C114 C 0.324 0.07185 0.03175 0.0
C115 C 0.29596 0.04964 0.01657 0.0
C116 C 0.26876 0.02751 0.03261 0.0
C117 C 0.27022 0.02683 0.06308 0.0
C118 C 0.29179 0.01141 0.93888 0.0
C119 C 0.30065 0.04517 0.9227 0.0
C120 C 0.28967 0.013 0.96929 0.0
C121 C 0.29615 0.04845 0.98415 0.0
C122 C 0.30422 0.08238 0.96784 0.0
C123 C 0.30655 0.08072 0.93744 0.0
H124 H 0.10527 0.29611 0.57161 0.0
H125 H 0.98076 0.31712 0.57089 0.0
H126 H 0.10525 0.2931 0.51839 0.0
H127 H 0.98083 0.31527 0.51778 0.0
H128 H 0.98631 0.27255 0.42462 0.0
H129 H 0.98852 0.27073 0.47773 0.0
H130 H 0.0973 0.33514 0.47648 0.0
H131 H 0.09558 0.33589 0.42324 0.0
C132 C 0.07794 0.30021 0.56005 0.0
C133 C 0.04301 0.30681 0.57536 0.0
C134 C 0.07794 0.2987 0.52957 0.0
C135 C 0.04303 0.30391 0.5138 0.0
C136 C 0.00812 0.31048 0.52923 0.0
C137 C 0.0081 0.3118 0.55967 0.0
C138 C 0.01081 0.2861 0.43571 0.0
C139 C 0.04071 0.30447 0.41983 0.0
C140 C 0.01196 0.28529 0.46614 0.0
C141 C 0.04294 0.30305 0.48139 0.0
C142 C 0.07324 0.32081 0.46542 0.0
C143 C 0.07217 0.32143 0.43494 0.0
H144 H 0.74666 0.09592 0.92469 0.0
H145 H 0.79295 0.97828 0.92339 0.0
H146 H 0.74801 0.09542 0.97784 0.0
H147 H 0.79551 0.97814 0.97659 0.0
H148 H 0.75236 0.97657 0.07147 0.0
H149 H 0.75289 0.97632 0.01823 0.0
H150 H 0.79244 0.09654 0.01825 0.0
H151 H 0.79072 0.09706 0.07138 0.0
C152 C 0.75743 0.07008 0.9358 0.0
C153 C 0.76964 0.03713 0.91994 0.0
C154 C 0.75844 0.06985 0.96626 0.0
C155 C 0.77195 0.03675 0.98152 0.0
C156 C 0.78443 0.00389 0.96556 0.0
C157 C 0.78318 0.00405 0.93508 0.0
C158 C 0.76129 0.00286 0.06005 0.0
C159 C 0.77135 0.03687 0.07553 0.0
C160 C 0.7618 0.00268 0.02956 0.0
C161 C 0.77258 0.03646 0.01394 0.0
C162 C 0.78332 0.07024 0.02955 0.0
C163 C 0.7826 0.07047 0.06001 0.0
H164 H 0.07879 0.82468 0.42044 0.0
H165 H 0.98421 0.74092 0.42017 0.0
H166 H 0.07648 0.82717 0.47358 0.0
H167 H 0.98269 0.7423 0.47331 0.0
H168 H 0.97007 0.77474 0.56877 0.0
H169 H 0.96778 0.78036 0.51571 0.0
H170 H 0.09403 0.78537 0.51328 0.0
H171 H 0.09612 0.78106 0.56629 0.0
C172 C 0.05738 0.80694 0.43177 0.0
C173 C 0.03178 0.7825 0.41621 0.0
C174 C 0.05624 0.80812 0.46221 0.0
C175 C 0.02967 0.78463 0.47777 0.0
C176 C 0.00324 0.7611 0.46207 0.0
C177 C 0.00421 0.76015 0.4316 0.0
C178 C -0.00272 0.77724 0.55685 0.0
C179 C 0.03328 0.7774 0.57162 0.0
C180 C 0.996 0.78027 0.52645 0.0
C181 C 0.03072 0.7833 0.51019 0.0
C182 C 0.06669 0.78377 0.5251 0.0
C183 C 0.06793 0.781 0.55548 0.0
H184 H 0.4375 0.09332 0.19472 0.0
H185 H 0.43985 0.97716 0.15747 0.0
H186 H 0.50874 0.0941 0.19605 0.0
H187 H 0.51109 0.97833 0.15795 0.0
H188 H 0.63801 0.97877 0.18709 0.0
H189 H 0.56686 0.97728 0.18998 0.0
H190 H 0.56244 0.09824 0.16235 0.0
H191 H 0.6336 0.09998 0.16033 0.0
C192 C 0.45329 0.06796 0.18681 0.0
C193 C 0.43321 0.0352 0.17595 0.0
C194 C 0.49408 0.06849 0.1874 0.0
C195 C 0.51561 0.03636 0.17697 0.0
C196 C 0.4954 0.00336 0.1665 0.0
C197 C 0.4546 0.00275 0.16607 0.0
C198 C 0.62179 0.00506 0.18176 0.0
C199 C 0.64126 0.03948 0.17347 0.0
C200 C 0.58104 0.00415 0.18326 0.0
C201 C 0.55896 0.03761 0.17634 0.0
C202 C 0.57857 0.07212 0.16824 0.0
C203 C 0.61932 0.07307 0.1669 0.0
H204 H 0.10367 0.44048 0.68134 0.0
H205 H 0.97949 0.44072 0.66421 0.0
H206 H 0.10359 0.51186 0.68248 0.0
H207 H 0.97952 0.51204 0.66434 0.0
H208 H 0.98546 0.63917 0.69228 0.0
H209 H 0.98641 0.56791 0.69531 0.0
H210 H 0.09706 0.56609 0.64982 0.0
H211 H 0.09664 0.63738 0.64774 0.0
C212 C 0.07638 0.45584 0.67777 0.0
C213 C 0.04159 0.43511 0.67267 0.0
C214 C 0.07635 0.49672 0.67823 0.0
C215 C 0.04158 0.51773 0.67339 0.0
C216 C 0.00672 0.49684 0.66858 0.0
C217 C 0.00671 0.45596 0.66833 0.0
C218 C 0.01004 0.62349 0.68306 0.0
C219 C 0.04095 0.64375 0.66975 0.0
C220 C 0.0105 0.58266 0.68463 0.0
C221 C 0.04175 0.56122 0.67272 0.0
C222 C 0.07282 0.58165 0.65961 0.0
C223 C 0.07248 0.6225 0.65824 0.0
H224 H 0.63552 0.097 0.81968 0.0
H225 H 0.63784 0.97064 0.82324 0.0
H226 H 0.56435 0.09573 0.8191 0.0
H227 H 0.56658 0.9692 0.82175 0.0
H228 H 0.44074 0.98492 0.85451 0.0
H229 H 0.51194 0.98441 0.8524 0.0
H230 H 0.50908 0.07893 0.78966 0.0
H231 H 0.43794 0.08025 0.79261 0.0
C232 C 0.62078 0.06893 0.82003 0.0
C233 C 0.64218 0.03393 0.8216 0.0
C234 C 0.57998 0.06816 0.81951 0.0
C235 C 0.5597 0.03235 0.82039 0.0
C236 C 0.58124 -0.00269 0.82148 0.0
C237 C 0.62207 -0.0019 0.82214 0.0
C238 C 0.45538 0.00544 0.84018 0.0
C239 C 0.43388 0.03274 0.82383 0.0
C240 C 0.49616 0.00502 0.83883 0.0
C241 C 0.51627 0.0317 0.8209 0.0
C242 C 0.49458 0.05845 0.80408 0.0
C243 C 0.45382 0.05906 0.80563 0.0
H244 H 0.07089 0.43727 0.28335 0.0
H245 H 0.99613 0.44522 0.35905 0.0
H246 H 0.07531 0.50888 0.2817 0.0
H247 H 0.00121 0.51658 0.35765 0.0
H248 H 0.06691 0.63533 0.36563 0.0
H249 H 0.06189 0.56399 0.36469 0.0
H250 H 0.02493 0.56846 0.27467 0.0
H251 H 0.0292 0.64014 0.27568 0.0
C252 C 0.05534 0.45433 0.29954 0.0
C253 C 0.03321 0.43582 0.32135 0.0
C254 C 0.05778 0.49516 0.29852 0.0
C255 C 0.03875 0.51798 0.31964 0.0
C256 C 0.01636 0.49948 0.34127 0.0
C257 C 0.01333 0.45876 0.34197 0.0
C258 C 0.05791 0.6211 0.34559 0.0
C259 C 0.04837 0.64316 0.32073 0.0
C260 C 0.05485 0.58038 0.34513 0.0
C261 C 0.04288 0.56098 0.31966 0.0
C262 C 0.03432 0.58289 0.29453 0.0
C263 C 0.03667 0.62375 0.29514 0.0
H264 H 0.14585 0.22913 0.3219 0.0
H265 H 0.09795 0.27292 0.24096 0.0
H266 H 0.19122 0.188 0.29459 0.0
H267 H 0.14375 0.23229 0.21364 0.0
H268 H 0.19364 0.11537 0.17887 0.0
H269 H 0.1522 0.16218 0.20449 0.0
H270 H 0.2481 0.19055 0.26218 0.0
H271 H 0.28936 0.14323 0.23684 0.0
C272 C 0.14535 0.23029 0.29828 0.0
C273 C 0.11828 0.25406 0.28355 0.0
C274 C 0.17146 0.20691 0.28264 0.0
C275 C 0.17096 0.20681 0.25195 0.0
C276 C 0.14448 0.23134 0.23726 0.0
C277 C 0.11842 0.25476 0.25291 0.0
C278 C 0.20593 0.13182 0.19688 0.0
C279 C 0.24464 0.12556 0.20594 0.0
C280 C 0.18228 0.15879 0.21146 0.0
C281 C 0.19687 0.18 0.23541 0.0
C282 C 0.23589 0.17429 0.24405 0.0
C283 C 0.25956 0.14737 0.22943 0.0
H284 H 0.94828 0.20742 0.67467 0.0
H285 H 0.95164 0.28945 0.74637 0.0
H286 H 0.90113 0.1675 0.70117 0.0
H287 H 0.90392 0.24976 0.77276 0.0
H288 H 0.86212 0.13961 0.82343 0.0
H289 H 0.90335 0.18552 0.79674 0.0
H290 H 0.83376 0.16705 0.71921 0.0
H291 H 0.79286 0.12064 0.74583 0.0
C292 C 0.93861 0.21713 0.69597 0.0
C293 C 0.95374 0.25146 0.70851 0.0
C294 C 0.91141 0.19439 0.71109 0.0
C295 C 0.89881 0.20546 0.73908 0.0
C296 C 0.91339 0.24024 0.75137 0.0
C297 C 0.94055 0.26306 0.73621 0.0
C298 C 0.85542 0.14564 0.80076 0.0
C299 C 0.82442 0.1264 0.78666 0.0
C300 C 0.8789 0.1721 0.78551 0.0
C301 C 0.87191 0.1798 0.75582 0.0
C302 C 0.84019 0.16134 0.74196 0.0
C303 C 0.81665 0.13494 0.75724 0.0
H304 H 0.91975 0.78914 0.28104 0.0
H305 H -0.00273 0.88814 0.29099 0.0
H306 H 0.87457 0.82986 0.25282 0.0
H307 H 0.95216 0.9287 0.26304 0.0
H308 H 0.88665 0.97563 0.18394 0.0
H309 H 0.92973 0.93224 0.21146 0.0
H310 H 0.83048 0.88784 0.25935 0.0
H311 H 0.78728 0.9311 0.23165 0.0
C312 C 0.92696 0.81963 0.27739 0.0
C313 C 0.96203 0.83547 0.28815 0.0
C314 C 0.9011 0.84292 0.26131 0.0
C315 C 0.91004 0.88233 0.25553 0.0
C316 C 0.94481 0.89825 0.26675 0.0
C317 C 0.97048 0.8751 0.28295 0.0
C318 C 0.874 0.95638 0.20016 0.0
C319 C 0.83366 0.95682 0.20573 0.0
C320 C 0.89868 0.93175 0.21605 0.0
C321 C 0.88348 0.90692 0.23771 0.0
C322 C 0.84296 0.90652 0.24268 0.0
C323 C 0.81829 0.93136 0.2269 0.0
H324 H 0.10258 0.88656 0.68641 0.0
H325 H 0.15292 0.78248 0.72471 0.0
H326 H 0.14638 0.92711 0.71556 0.0
H327 H 0.19705 0.82334 0.75388 0.0
H328 H 0.29404 0.91743 0.77647 0.0
H329 H 0.25361 0.87329 0.74691 0.0
H330 H 0.15089 0.93964 0.7703 0.0
H331 H 0.19094 0.98338 0.79984 0.0
C332 C 0.12326 0.87233 0.70086 0.0
C333 C 0.12423 0.83138 0.70341 0.0
C334 C 0.14816 0.89556 0.71765 0.0
C335 C 0.17479 0.87832 0.73713 0.0
C336 C 0.17682 0.83731 0.73895 0.0
C337 C 0.15155 0.81401 0.72234 0.0
C338 C 0.26278 0.9223 0.77544 0.0
C339 C 0.24561 0.95385 0.79037 0.0
C340 C 0.23971 0.89705 0.75862 0.0
C341 C 0.19926 0.90336 0.75614 0.0
C342 C 0.1821 0.93446 0.77153 0.0
C343 C 0.205 0.95931 0.78859 0.0
H344 H 0.78021 0.93717 0.75397 0.0
H345 H 0.87166 0.94598 0.81873 0.0
H346 H 0.81865 0.88856 0.72744 0.0
H347 H 0.91031 0.89805 0.79203 0.0
H348 H 0.96034 0.79085 0.74916 0.0
H349 H 0.91357 0.82946 0.77725 0.0
H350 H 0.87873 0.89002 0.69861 0.0
H351 H 0.92489 0.85096 0.67051 0.0
C352 C 0.80839 0.92852 0.76262 0.0
C353 C 0.82307 0.94548 0.78831 0.0
C354 C 0.83046 0.90084 0.74738 0.0
C355 C 0.86756 0.88956 0.75759 0.0
C356 C 0.88163 0.90572 0.78378 0.0
C357 C 0.85961 0.9334 0.79898 0.0
C358 C 0.94229 0.81206 0.73785 0.0
C359 C 0.94641 0.81812 0.7077 0.0
C360 C 0.91568 0.83429 0.75394 0.0
C361 C 0.89267 0.86298 0.74018 0.0
C362 C 0.89574 0.86789 0.70981 0.0
C363 C 0.92235 0.84567 0.69374 0.0
H364 H 0.26661 0.96935 0.25458 0.0
H365 H 0.2698 0.90063 0.1755 0.0
H366 H 0.23148 0.91706 0.27913 0.0
H367 H 0.23562 0.84748 0.20038 0.0
H368 H 0.12054 0.79883 0.24087 0.0
H369 H 0.16985 0.83828 0.21659 0.0
H370 H 0.23136 0.85204 0.29842 0.0
H371 H 0.18105 0.81351 0.32292 0.0
C372 C 0.26049 0.94267 0.24262 0.0
C373 C 0.2705 0.93923 0.21304 0.0
C374 C 0.24061 0.91249 0.25677 0.0
C375 C 0.23051 0.87807 0.2417 0.0
C376 C 0.2424 0.87385 0.21249 0.0
C377 C 0.26211 0.9042 0.19827 0.0
C378 C 0.14499 0.80965 0.25358 0.0
C379 C 0.14669 0.80358 0.28385 0.0
C380 C 0.17345 0.83211 0.23961 0.0
C381 C 0.20438 0.84876 0.25561 0.0
C382 C 0.20749 0.84031 0.28557 0.0
C383 C 0.17884 0.81804 0.29958 0.0
H384 H 0.13809 0.20937 0.676 0.0
H385 H 0.13965 0.29784 0.74335 0.0
H386 H 0.18654 0.17161 0.70286 0.0
H387 H 0.18897 0.26044 0.77002 0.0
H388 H 0.22839 0.15297 0.82525 0.0
H389 H 0.18962 0.19971 0.79741 0.0
H390 H 0.25368 0.16944 0.71938 0.0
H391 H 0.29182 0.12191 0.74716 0.0
C392 C 0.14923 0.22101 0.69636 0.0
C393 C 0.13489 0.25636 0.7077 0.0
C394 C 0.17724 0.19952 0.71167 0.0
C395 C 0.19158 0.21299 0.73863 0.0
C396 C 0.17813 0.24904 0.74949 0.0
C397 C 0.15003 0.27053 0.73418 0.0
C398 C 0.23454 0.1567 0.80223 0.0
C399 C 0.26281 0.13353 0.78829 0.0
C400 C 0.21248 0.18366 0.7863 0.0
C401 C 0.21834 0.18806 0.75611 0.0
C402 C 0.248 0.16622 0.7425 0.0
C403 C 0.26998 0.13917 0.75843 0.0
H404 H 0.94086 0.20593 0.32176 0.0
H405 H 0.91936 0.30406 0.26445 0.0
H406 H 0.89134 0.16798 0.29609 0.0
H407 H 0.86942 0.26602 0.23879 0.0
H408 H 0.8377 0.1607 0.17706 0.0
H409 H 0.87419 0.208 0.20613 0.0
H410 H 0.82059 0.16292 0.28455 0.0
H411 H 0.78424 0.11525 0.25543 0.0
C412 C 0.92507 0.21958 0.30396 0.0
C413 C 0.93415 0.25779 0.29493 0.0
C414 C 0.89651 0.19795 0.28939 0.0
C415 C 0.87661 0.21401 0.26537 0.0
C416 C 0.88458 0.25282 0.25707 0.0
C417 C 0.913 0.2746 0.27182 0.0
C418 C 0.83326 0.16129 0.20046 0.0
C419 C 0.80845 0.13408 0.21404 0.0
C420 C 0.85395 0.18855 0.21709 0.0
C421 C 0.85037 0.18901 0.24762 0.0
C422 C 0.8242 0.16293 0.26107 0.0
C423 C 0.80331 0.13579 0.24441 0.0
loop_
_geom_bond_atom_site_label_1
_geom_bond_atom_site_label_2
_geom_bond_distance
_geom_bond_site_symmetry_2
_ccdc_geom_bond_type
In0 O1 2.294 . S
In0 O2 2.326 1_545 S
In0 O6 2.266 . S
In0 O7 2.326 . S
In0 O8 2.266 1_545 S
In0 O9 2.326 . S
In0 O11 2.294 . S
In0 O12 2.326 . S
O1 In0 2.294 . S
O1 C10 1.240 . S
O2 In0 2.326 1_565 S
O2 C10 1.252 1_565 S
C3 O6 1.252 . S
C3 O7 1.260 . S
C4 O11 1.240 . S
C4 O12 1.252 . S
C5 O8 1.252 . S
C5 O9 1.260 1_565 S
O6 In0 2.266 . S
O6 C3 1.252 . S
O7 In0 2.326 . S
O7 C3 1.260 . S
O8 In0 2.266 1_565 S
O8 C5 1.252 . S
O9 In0 2.326 . S
O9 C5 1.260 1_545 S
C10 O1 1.240 . S
C10 O2 1.252 1_545 S
O11 In0 2.294 . S
O11 C4 1.240 . S
O12 In0 2.326 . S
O12 C4 1.252 . S
In13 O14 2.294 . S
In13 O15 2.326 . S
In13 O19 2.266 . S
In13 O20 2.326 . S
In13 O21 2.266 . S
In13 O22 2.326 . S
In13 O24 2.294 . S
In13 O25 2.326 . S
O14 In13 2.294 . S
O14 C23 1.240 . S
O15 In13 2.326 . S
O15 C23 1.252 . S
C16 O19 1.252 . S
C16 O20 1.260 . S
C17 O24 1.240 . S
C17 O25 1.252 . S
C18 O21 1.252 . S
C18 O22 1.260 . S
O19 In13 2.266 . S
O19 C16 1.252 . S
O20 In13 2.326 . S
O20 C16 1.260 . S
O21 In13 2.266 . S
O21 C18 1.252 . S
O22 In13 2.326 . S
O22 C18 1.260 . S
C23 O14 1.240 . S
C23 O15 1.252 . S
O24 In13 2.294 . S
O24 C17 1.240 . S
O25 In13 2.326 . S
O25 C17 1.252 . S
In26 O27 2.294 . S
In26 O28 2.326 . S
In26 O32 2.266 . S
In26 O33 2.326 . S
In26 O34 2.266 . S
In26 O35 2.326 . S
In26 O37 2.294 . S
In26 O38 2.326 . S
O27 In26 2.294 . S
O27 C36 1.240 . S
O28 In26 2.326 . S
O28 C36 1.252 . S
C29 O32 1.252 . S
C29 O33 1.260 . S
C30 O37 1.240 . S
C30 O38 1.252 . S
C31 O34 1.252 . S
C31 O35 1.260 . S
O32 In26 2.266 . S
O32 C29 1.252 . S
O33 In26 2.326 . S
O33 C29 1.260 . S
O34 In26 2.266 . S
O34 C31 1.252 . S
O35 In26 2.326 . S
O35 C31 1.260 . S
C36 O27 1.240 . S
C36 O28 1.252 . S
O37 In26 2.294 . S
O37 C30 1.240 . S
O38 In26 2.326 . S
O38 C30 1.252 . S
In39 O40 2.294 . S
In39 O41 2.326 . S
In39 O45 2.266 1_455 S
In39 O46 2.326 . S
In39 O47 2.266 . S
In39 O48 2.326 . S
In39 O50 2.294 . S
In39 O51 2.326 1_455 S
O40 In39 2.294 . S
O40 C49 1.240 . S
O41 In39 2.326 . S
O41 C49 1.252 . S
C42 O45 1.252 . S
C42 O46 1.260 1_655 S
C43 O50 1.240 . S
C43 O51 1.252 1_455 S
C44 O47 1.252 . S
C44 O48 1.260 . S
O45 In39 2.266 1_655 S
O45 C42 1.252 . S
O46 In39 2.326 . S
O46 C42 1.260 1_455 S
O47 In39 2.266 . S
O47 C44 1.252 . S
O48 In39 2.326 . S
O48 C44 1.260 . S
C49 O40 1.240 . S
C49 O41 1.252 . S
O50 In39 2.294 . S
O50 C43 1.240 . S
O51 In39 2.326 1_655 S
O51 C43 1.252 1_655 S
In52 O53 2.294 . S
In52 O54 2.326 . S
In52 O58 2.266 . S
In52 O59 2.326 . S
In52 O60 2.266 . S
In52 O61 2.326 . S
In52 O63 2.294 . S
In52 O64 2.326 . S
O53 In52 2.294 . S
O53 C62 1.240 . S
O54 In52 2.326 . S
O54 C62 1.252 . S
C55 O58 1.252 . S
C55 O59 1.260 . S
C56 O63 1.240 . S
C56 O64 1.252 . S
C57 O60 1.252 . S
C57 O61 1.260 . S
O58 In52 2.266 . S
O58 C55 1.252 . S
O59 In52 2.326 . S
O59 C55 1.260 . S
O60 In52 2.266 . S
O60 C57 1.252 . S
O61 In52 2.326 . S
O61 C57 1.260 . S
C62 O53 1.240 . S
C62 O54 1.252 . S
O63 In52 2.294 . S
O63 C56 1.240 . S
O64 In52 2.326 . S
O64 C56 1.252 . S
In65 O66 2.294 . S
In65 O67 2.326 1_455 S
In65 O71 2.266 . S
In65 O72 2.326 . S
In65 O73 2.266 1_455 S
In65 O74 2.326 . S
In65 O76 2.294 . S
In65 O77 2.326 . S
O66 In65 2.294 . S
O66 C75 1.240 . S
O67 In65 2.326 1_655 S
O67 C75 1.252 1_655 S
C68 O71 1.252 . S
C68 O72 1.260 . S
C69 O76 1.240 . S
C69 O77 1.252 . S
C70 O73 1.252 . S
C70 O74 1.260 1_655 S
O71 In65 2.266 . S
O71 C68 1.252 . S
O72 In65 2.326 . S
O72 C68 1.260 . S
O73 In65 2.266 1_655 S
O73 C70 1.252 . S
O74 In65 2.326 . S
O74 C70 1.260 1_455 S
C75 O66 1.240 . S
C75 O67 1.252 1_455 S
O76 In65 2.294 . S
O76 C69 1.240 . S
O77 In65 2.326 . S
O77 C69 1.252 . S
In78 O79 2.294 . S
In78 O80 2.326 . S
In78 O84 2.266 1_545 S
In78 O85 2.326 . S
In78 O86 2.266 . S
In78 O87 2.326 . S
In78 O89 2.294 . S
In78 O90 2.326 1_545 S
O79 In78 2.294 . S
O79 C88 1.240 . S
O80 In78 2.326 . S
O80 C88 1.252 . S
C81 O84 1.252 . S
C81 O85 1.260 1_565 S
C82 O89 1.240 . S
C82 O90 1.252 1_545 S
C83 O86 1.252 . S
C83 O87 1.260 . S
O84 In78 2.266 1_565 S
O84 C81 1.252 . S
O85 In78 2.326 . S
O85 C81 1.260 1_545 S
O86 In78 2.266 . S
O86 C83 1.252 . S
O87 In78 2.326 . S
O87 C83 1.260 . S
C88 O79 1.240 . S
C88 O80 1.252 . S
O89 In78 2.294 . S
O89 C82 1.240 . S
O90 In78 2.326 1_565 S
O90 C82 1.252 1_565 S
In91 O92 2.294 . S
In91 O93 2.326 . S
In91 O97 2.266 . S
In91 O98 2.326 . S
In91 O99 2.266 . S
In91 O100 2.326 . S
In91 O102 2.294 . S
In91 O103 2.326 . S
O92 In91 2.294 . S
O92 C101 1.240 . S
O93 In91 2.326 . S
O93 C101 1.252 . S
C94 O97 1.252 . S
C94 O98 1.260 . S
C95 O102 1.240 . S
C95 O103 1.252 . S
C96 O99 1.252 . S
C96 O100 1.260 . S
O97 In91 2.266 . S
O97 C94 1.252 . S
O98 In91 2.326 . S
O98 C94 1.260 . S
O99 In91 2.266 . S
O99 C96 1.252 . S
O100 In91 2.326 . S
O100 C96 1.260 . S
C101 O92 1.240 . S
C101 O93 1.252 . S
O102 In91 2.294 . S
O102 C95 1.240 . S
O103 In91 2.326 . S
O103 C95 1.252 . S
H104 C112 0.950 . S
H105 C117 0.950 1_565 S
H106 C114 0.950 . S
H107 C116 0.950 1_565 S
H108 C118 0.950 1_565 S
H109 C120 0.950 1_565 S
H110 C122 0.950 . S
H111 C123 0.950 . S
C112 H104 0.950 . S
C112 C113 1.386 . S
C112 C114 1.391 . S
C113 C112 1.386 . S
C113 C117 1.393 . S
C114 H106 0.950 . S
C114 C112 1.391 . S
C114 C115 1.400 . S
C115 C114 1.400 . S
C115 C116 1.398 . S
C115 C121 1.491 1_554 S
C116 H107 0.950 1_545 S
C116 C115 1.398 . S
C116 C117 1.391 . S
C117 H105 0.950 1_545 S
C117 C113 1.393 . S
C117 C116 1.391 . S
C118 H108 0.950 1_545 S
C118 C119 1.386 . S
C118 C120 1.391 . S
C119 C118 1.386 . S
C119 C123 1.393 . S
C120 H109 0.950 1_545 S
C120 C118 1.391 . S
C120 C121 1.400 . S
C121 C115 1.491 1_556 S
C121 C120 1.400 . S
C121 C122 1.398 . S
C122 H110 0.950 . S
C122 C121 1.398 . S
C122 C123 1.391 . S
C123 H111 0.950 . S
C123 C119 1.393 . S
C123 C122 1.391 . S
H124 C132 0.950 . S
H125 C137 0.950 1_655 S
H126 C134 0.950 . S
H127 C136 0.950 1_655 S
H128 C138 0.950 1_655 S
H129 C140 0.950 1_655 S
H130 C142 0.950 . S
H131 C143 0.950 . S
C132 H124 0.950 . S
C132 C133 1.386 . S
C132 C134 1.391 . S
C133 C132 1.386 . S
C133 C137 1.393 . S
C134 H126 0.950 . S
C134 C132 1.391 . S
C134 C135 1.400 . S
C135 C134 1.400 . S
C135 C136 1.398 . S
C135 C141 1.491 . S
C136 H127 0.950 1_455 S
C136 C135 1.398 . S
C136 C137 1.391 . S
C137 H125 0.950 1_455 S
C137 C133 1.393 . S
C137 C136 1.391 . S
C138 H128 0.950 1_455 S
C138 C139 1.386 . S
C138 C140 1.391 . S
C139 C138 1.386 . S
C139 C143 1.393 . S
C140 H129 0.950 1_455 S
C140 C138 1.391 . S
C140 C141 1.400 . S
C141 C135 1.491 . S
C141 C140 1.400 . S
C141 C142 1.398 . S
C142 H130 0.950 . S
C142 C141 1.398 . S
C142 C143 1.391 . S
C143 H131 0.950 . S
C143 C139 1.393 . S
C143 C142 1.391 . S
H144 C152 0.950 . S
H145 C157 0.950 . S
H146 C154 0.950 . S
H147 C156 0.933 1_565 S
H148 C158 0.965 . S
H149 C160 0.950 . S
H150 C162 0.950 . S
H151 C163 0.950 . S
C152 H144 0.950 . S
C152 C153 1.386 . S
C152 C154 1.391 . S
C153 C152 1.386 . S
C153 C157 1.393 . S
C154 H146 0.950 . S
C154 C152 1.391 . S
C154 C155 1.400 . S
C155 C154 1.400 . S
C155 C156 1.398 . S
C155 C161 1.491 1_556 S
C156 H147 0.933 1_545 S
C156 C155 1.398 . S
C156 C157 1.391 . S
C157 H145 0.950 . S
C157 C153 1.393 . S
C157 C156 1.391 . S
C158 H148 0.965 . S
C158 C159 1.386 . S
C158 C160 1.391 . S
C159 C158 1.386 . S
C159 C163 1.393 . S
C160 H149 0.950 . S
C160 C158 1.391 . S
C160 C161 1.400 . S
C161 C155 1.491 1_554 S
C161 C160 1.400 . S
C161 C162 1.398 . S
C162 H150 0.950 . S
C162 C161 1.398 . S
C162 C163 1.391 . S
C163 H151 0.950 . S
C163 C159 1.393 . S
C163 C162 1.391 . S
H164 C172 0.950 . S
H165 C177 0.950 1_655 S
H166 C174 0.950 . S
H167 C176 0.950 1_655 S
H168 C178 0.950 1_655 S
H169 C180 0.950 1_655 S
H170 C182 0.950 . S
H171 C183 0.950 . S
C172 H164 0.950 . S
C172 C173 1.386 . S
C172 C174 1.391 . S
C173 C172 1.386 . S
C173 C177 1.393 . S
C174 H166 0.950 . S
C174 C172 1.391 . S
C174 C175 1.400 . S
C175 C174 1.400 . S
C175 C176 1.398 . S
C175 C181 1.491 . S
C176 H167 0.950 1_455 S
C176 C175 1.398 . S
C176 C177 1.391 . S
C177 H165 0.950 1_455 S
C177 C173 1.393 . S
C177 C176 1.391 . S
C178 H168 0.950 1_455 S
C178 C179 1.386 . S
C178 C180 1.391 . S
C179 C178 1.386 . S
C179 C183 1.393 . S
C180 H169 0.950 1_455 S
C180 C178 1.391 . S
C180 C181 1.400 . S
C181 C175 1.491 . S
C181 C180 1.400 . S
C181 C182 1.398 . S
C182 H170 0.950 . S
C182 C181 1.398 . S
C182 C183 1.391 . S
C183 H171 0.950 . S
C183 C179 1.393 . S
C183 C182 1.391 . S
H184 C192 0.950 . S
H185 C197 0.950 1_565 S
H186 C194 0.950 . S
H187 C196 0.950 . S
H188 C198 0.950 . S
H189 C200 0.950 . S
H190 C202 0.950 . S
H191 C203 0.950 . S
C192 H184 0.950 . S
C192 C193 1.386 . S
C192 C194 1.391 . S
C193 C192 1.386 . S
C193 C197 1.393 . S
C194 H186 0.950 . S
C194 C192 1.391 . S
C194 C195 1.400 . S
C195 C194 1.400 . S
C195 C196 1.398 . S
C195 C201 1.491 . S
C196 H187 0.950 . S
C196 C195 1.398 . S
C196 C197 1.391 . S
C197 H185 0.950 1_545 S
C197 C193 1.393 . S
C197 C196 1.391 . S
C198 H188 0.950 . S
C198 C199 1.386 . S
C198 C200 1.391 . S
C199 C198 1.386 . S
C199 C203 1.393 . S
C200 H189 0.950 . S
C200 C198 1.391 . S
C200 C201 1.400 . S
C201 C195 1.491 . S
C201 C200 1.400 . S
C201 C202 1.398 . S
C202 H190 0.950 . S
C202 C201 1.398 . S
C202 C203 1.391 . S
C203 H191 0.950 . S
C203 C199 1.393 . S
C203 C202 1.391 . S
H204 C212 0.950 . S
H205 C217 0.950 . S
H206 C214 0.950 . S
H207 C216 0.950 . S
H208 C218 0.950 . S
H209 C220 0.950 . S
H210 C222 0.950 . S
H211 C223 0.950 . S
C212 H204 0.950 . S
C212 C213 1.386 . S
C212 C214 1.391 . S
C213 C212 1.386 . S
C213 C217 1.393 . S
C214 H206 0.950 . S
C214 C212 1.391 . S
C214 C215 1.400 . S
C215 C214 1.400 . S
C215 C216 1.398 . S
C215 C221 1.491 . S
C216 H207 0.950 . S
C216 C215 1.398 . S
C216 C217 1.391 . S
C217 H205 0.950 . S
C217 C213 1.393 . S
C217 C216 1.391 . S
C218 H208 0.950 . S
C218 C219 1.386 . S
C218 C220 1.391 . S
C219 C218 1.386 . S
C219 C223 1.393 . S
C220 H209 0.950 . S
C220 C218 1.391 . S
C220 C221 1.400 . S
C221 C215 1.491 . S
C221 C220 1.400 . S
C221 C222 1.398 . S
C222 H210 0.950 . S
C222 C221 1.398 . S
C222 C223 1.391 . S
C223 H211 0.950 . S
C223 C219 1.393 . S
C223 C222 1.391 . S
H224 C232 0.950 . S
H225 C237 0.950 . S
H226 C234 0.950 . S
H227 C236 0.950 . S
H228 C238 0.950 . S
H229 C240 0.950 . S
H230 C242 0.950 . S
H231 C243 0.950 . S
C232 H224 0.950 . S
C232 C233 1.386 . S
C232 C234 1.391 . S
C233 C232 1.386 . S
C233 C237 1.393 . S
C234 H226 0.950 . S
C234 C232 1.391 . S
C234 C235 1.400 . S
C235 C234 1.400 . S
C235 C236 1.398 . S
C235 C241 1.491 . S
C236 H227 0.950 . S
C236 C235 1.398 . S
C236 C237 1.391 . S
C237 H225 0.950 . S
C237 C233 1.393 . S
C237 C236 1.391 . S
C238 H228 0.950 . S
C238 C239 1.386 . S
C238 C240 1.391 . S
C239 C238 1.386 . S
C239 C243 1.393 . S
C240 H229 0.950 . S
C240 C238 1.391 . S
C240 C241 1.400 . S
C241 C235 1.491 . S
C241 C240 1.400 . S
C241 C242 1.398 . S
C242 H230 0.950 . S
C242 C241 1.398 . S
C242 C243 1.391 . S
C243 H231 0.950 . S
C243 C239 1.393 . S
C243 C242 1.391 . S
H244 C252 0.950 . S
H245 C257 0.950 . S
H246 C254 0.950 . S
H247 C256 0.950 . S
H248 C258 0.950 . S
H249 C260 0.950 . S
H250 C262 0.950 . S
H251 C263 0.950 . S
C252 H244 0.950 . S
C252 C253 1.386 . S
C252 C254 1.391 . S
C253 C252 1.386 . S
C253 C257 1.393 . S
C254 H246 0.950 . S
C254 C252 1.391 . S
C254 C255 1.400 . S
C255 C254 1.400 . S
C255 C256 1.398 . S
C255 C261 1.491 . S
C256 H247 0.950 . S
C256 C255 1.398 . S
C256 C257 1.391 . S
C257 H245 0.950 . S
C257 C253 1.393 . S
C257 C256 1.391 . S
C258 H248 0.950 . S
C258 C259 1.386 . S
C258 C260 1.391 . S
C259 C258 1.386 . S
C259 C263 1.393 . S
C260 H249 0.950 . S
C260 C258 1.391 . S
C260 C261 1.400 . S
C261 C255 1.491 . S
C261 C260 1.400 . S
C261 C262 1.398 . S
C262 H250 0.950 . S
C262 C261 1.398 . S
C262 C263 1.391 . S
C263 H251 0.950 . S
C263 C259 1.393 . S
C263 C262 1.391 . S
H264 C272 0.950 . S
H265 C277 0.950 . S
H266 C274 0.950 . S
H267 C276 0.950 . S
H268 C278 0.950 . S
H269 C280 0.950 . S
H270 C282 0.950 . S
H271 C283 0.950 . S
C272 H264 0.950 . S
C272 C273 1.386 . S
C272 C274 1.391 . S
C273 C272 1.386 . S
C273 C277 1.393 . S
C274 H266 0.950 . S
C274 C272 1.391 . S
C274 C275 1.400 . S
C275 C274 1.400 . S
C275 C276 1.398 . S
C275 C281 1.491 . S
C276 H267 0.950 . S
C276 C275 1.398 . S
C276 C277 1.391 . S
C277 H265 0.950 . S
C277 C273 1.393 . S
C277 C276 1.391 . S
C278 H268 0.950 . S
C278 C279 1.386 . S
C278 C280 1.391 . S
C279 C278 1.386 . S
C279 C283 1.393 . S
C280 H269 0.950 . S
C280 C278 1.391 . S
C280 C281 1.400 . S
C281 C275 1.491 . S
C281 C280 1.400 . S
C281 C282 1.398 . S
C282 H270 0.950 . S
C282 C281 1.398 . S
C282 C283 1.391 . S
C283 H271 0.950 . S
C283 C279 1.393 . S
C283 C282 1.391 . S
H284 C292 0.950 . S
H285 C297 0.950 1_455 S
H286 C294 0.950 . S
H287 C296 0.950 . S
H288 C298 0.950 . S
H289 C300 0.950 . S
H290 C302 0.950 . S
H291 C303 0.950 . S
C292 H284 0.950 . S
C292 C293 1.386 . S
C292 C294 1.391 . S
C293 C292 1.386 . S
C293 C297 1.393 . S
C294 H286 0.950 . S
C294 C292 1.391 . S
C294 C295 1.400 . S
C295 C294 1.400 . S
C295 C296 1.398 . S
C295 C301 1.491 . S
C296 H287 0.950 . S
C296 C295 1.398 . S
C296 C297 1.391 . S
C297 H285 0.950 1_655 S
C297 C293 1.393 . S
C297 C296 1.391 . S
C298 H288 0.950 . S
C298 C299 1.386 . S
C298 C300 1.391 . S
C299 C298 1.386 . S
C299 C303 1.393 . S
C300 H289 0.950 . S
C300 C298 1.391 . S
C300 C301 1.400 . S
C301 C295 1.491 . S
C301 C300 1.400 . S
C301 C302 1.398 . S
C302 H290 0.950 . S
C302 C301 1.398 . S
C302 C303 1.391 . S
C303 H291 0.950 . S
C303 C299 1.393 . S
C303 C302 1.391 . S
H304 C312 0.950 . S
H305 C317 0.950 . S
H306 C314 0.950 . S
H307 C316 0.950 . S
H308 C318 0.950 1_545 S
H309 C320 0.950 . S
H310 C322 0.950 . S
H311 C323 0.950 . S
C312 H304 0.950 . S
C312 C313 1.386 . S
C312 C314 1.391 . S
C313 C312 1.386 . S
C313 C317 1.393 . S
C314 H306 0.950 . S
C314 C312 1.391 . S
C314 C315 1.400 . S
C315 C314 1.400 . S
C315 C316 1.398 . S
C315 C321 1.491 . S
C316 H307 0.950 . S
C316 C315 1.398 . S
C316 C317 1.391 . S
C317 H305 0.950 . S
C317 C313 1.393 . S
C317 C316 1.391 . S
C318 H308 0.950 1_565 S
C318 C319 1.386 . S
C318 C320 1.391 . S
C319 C318 1.386 . S
C319 C323 1.393 . S
C320 H309 0.950 . S
C320 C318 1.391 . S
C320 C321 1.400 . S
C321 C315 1.491 . S
C321 C320 1.400 . S
C321 C322 1.398 . S
C322 H310 0.950 . S
C322 C321 1.398 . S
C322 C323 1.391 . S
C323 H311 0.950 . S
C323 C319 1.393 . S
C323 C322 1.391 . S
H324 C332 0.950 . S
H325 C337 0.950 . S
H326 C334 0.950 . S
H327 C336 0.950 . S
H328 C338 0.950 . S
H329 C340 0.950 . S
H330 C342 0.950 . S
H331 C343 0.950 1_545 S
C332 H324 0.950 . S
C332 C333 1.386 . S
C332 C334 1.391 . S
C333 C332 1.386 . S
C333 C337 1.393 . S
C334 H326 0.950 . S
C334 C332 1.391 . S
C334 C335 1.400 . S
C335 C334 1.400 . S
C335 C336 1.398 . S
C335 C341 1.491 . S
C336 H327 0.950 . S
C336 C335 1.398 . S
C336 C337 1.391 . S
C337 H325 0.950 . S
C337 C333 1.393 . S
C337 C336 1.391 . S
C338 H328 0.950 . S
C338 C339 1.386 . S
C338 C340 1.391 . S
C339 C338 1.386 . S
C339 C343 1.393 . S
C340 H329 0.950 . S
C340 C338 1.391 . S
C340 C341 1.400 . S
C341 C335 1.491 . S
C341 C340 1.400 . S
C341 C342 1.398 . S
C342 H330 0.950 . S
C342 C341 1.398 . S
C342 C343 1.391 . S
C343 H331 0.950 1_565 S
C343 C339 1.393 . S
C343 C342 1.391 . S
H344 C352 0.950 . S
H345 C357 0.950 . S
H346 C354 0.950 . S
H347 C356 0.950 . S
H348 C358 0.950 . S
H349 C360 0.950 . S
H350 C362 0.950 . S
H351 C363 0.950 . S
C352 H344 0.950 . S
C352 C353 1.386 . S
C352 C354 1.391 . S
C353 C352 1.386 . S
C353 C357 1.393 . S
C354 H346 0.950 . S
C354 C352 1.391 . S
C354 C355 1.400 . S
C355 C354 1.400 . S
C355 C356 1.398 . S
C355 C361 1.491 . S
C356 H347 0.950 . S
C356 C355 1.398 . S
C356 C357 1.391 . S
C357 H345 0.950 . S
C357 C353 1.393 . S
C357 C356 1.391 . S
C358 H348 0.950 . S
C358 C359 1.386 . S
C358 C360 1.391 . S
C359 C358 1.386 . S
C359 C363 1.393 . S
C360 H349 0.950 . S
C360 C358 1.391 . S
C360 C361 1.400 . S
C361 C355 1.491 . S
C361 C360 1.400 . S
C361 C362 1.398 . S
C362 H350 0.950 . S
C362 C361 1.398 . S
C362 C363 1.391 . S
C363 H351 0.950 . S
C363 C359 1.393 . S
C363 C362 1.391 . S
H364 C372 0.950 . S
H365 C377 0.950 . S
H366 C374 0.950 . S
H367 C376 0.950 . S
H368 C378 0.950 . S
H369 C380 0.950 . S
H370 C382 0.950 . S
H371 C383 0.950 . S
C372 H364 0.950 . S
C372 C373 1.386 . S
C372 C374 1.391 . S
C373 C372 1.386 . S
C373 C377 1.393 . S
C374 H366 0.950 . S
C374 C372 1.391 . S
C374 C375 1.400 . S
C375 C374 1.400 . S
C375 C376 1.398 . S
C375 C381 1.491 . S
C376 H367 0.950 . S
C376 C375 1.398 . S
C376 C377 1.391 . S
C377 H365 0.950 . S
C377 C373 1.393 . S
C377 C376 1.391 . S
C378 H368 0.950 . S
C378 C379 1.386 . S
C378 C380 1.391 . S
C379 C378 1.386 . S
C379 C383 1.393 . S
C380 H369 0.950 . S
C380 C378 1.391 . S
C380 C381 1.400 . S
C381 C375 1.491 . S
C381 C380 1.400 . S
C381 C382 1.398 . S
C382 H370 0.950 . S
C382 C381 1.398 . S
C382 C383 1.391 . S
C383 H371 0.950 . S
C383 C379 1.393 . S
C383 C382 1.391 . S
H384 C392 0.950 . S
H385 C397 0.950 . S
H386 C394 0.950 . S
H387 C396 0.950 . S
H388 C398 0.950 . S
H389 C400 0.950 . S
H390 C402 0.950 . S
H391 C403 0.950 . S
C392 H384 0.950 . S
C392 C393 1.386 . S
C392 C394 1.391 . S
C393 C392 1.386 . S
C393 C397 1.393 . S
C394 H386 0.950 . S
C394 C392 1.391 . S
C394 C395 1.400 . S
C395 C394 1.400 . S
C395 C396 1.398 . S
C395 C401 1.491 . S
C396 H387 0.950 . S
C396 C395 1.398 . S
C396 C397 1.391 . S
C397 H385 0.950 . S
C397 C393 1.393 . S
C397 C396 1.391 . S
C398 H388 0.950 . S
C398 C399 1.386 . S
C398 C400 1.391 . S
C399 C398 1.386 . S
C399 C403 1.393 . S
C400 H389 0.950 . S
C400 C398 1.391 . S
C400 C401 1.400 . S
C401 C395 1.491 . S
C401 C400 1.400 . S
C401 C402 1.398 . S
C402 H390 0.950 . S
C402 C401 1.398 . S
C402 C403 1.391 . S
C403 H391 0.950 . S
C403 C399 1.393 . S
C403 C402 1.391 . S
H404 C412 0.950 . S
H405 C417 0.950 . S
H406 C414 0.950 . S
H407 C416 0.950 . S
H408 C418 0.950 . S
H409 C420 0.950 . S
H410 C422 0.950 . S
H411 C423 0.950 . S
C412 H404 0.950 . S
C412 C413 1.386 . S
C412 C414 1.391 . S
C413 C412 1.386 . S
C413 C417 1.393 . S
C414 H406 0.950 . S
C414 C412 1.391 . S
C414 C415 1.400 . S
C415 C414 1.400 . S
C415 C416 1.398 . S
C415 C421 1.491 . S
C416 H407 0.950 . S
C416 C415 1.398 . S
C416 C417 1.391 . S
C417 H405 0.950 . S
C417 C413 1.393 . S
C417 C416 1.391 . S
C418 H408 0.950 . S
C418 C419 1.386 . S
C418 C420 1.391 . S
C419 C418 1.386 . S
C419 C423 1.393 . S
C420 H409 0.950 . S
C420 C418 1.391 . S
C420 C421 1.400 . S
C421 C415 1.491 . S
C421 C420 1.400 . S
C421 C422 1.398 . S
C422 H410 0.950 . S
C422 C421 1.398 . S
C422 C423 1.391 . S
C423 H411 0.950 . S
C423 C419 1.393 . S
C423 C422 1.391 . S
C113 C4 1.614 . S
C119 C62 1.614 . S
C133 C17 1.614 . S
C139 C69 1.615 . S
C153 C88 1.611 . S
C159 C30 1.611 . S
C173 C101 1.613 . S
C179 C49 1.614 . S
C193 C10 1.405 . S
C199 C36 1.402 . S
C213 C23 1.401 . S
C219 C43 1.402 . S
C233 C82 1.418 . S
C239 C56 1.418 . S
C253 C75 1.418 . S
C259 C95 1.418 . S
C273 C68 1.647 . S
C279 C3 1.649 . S
C293 C16 1.648 1_655 S
C299 C83 1.650 . S
C313 C96 1.652 1_655 S
C319 C29 1.651 1_565 S
C333 C44 1.646 . S
C339 C57 1.645 1_565 S
C353 C81 1.199 . S
C359 C42 1.209 . S
C373 C5 1.191 . S
C379 C94 1.204 . S
C393 C18 1.202 . S
C399 C55 1.191 . S
C413 C70 1.203 . S
C419 C31 1.191 . S
