# Generated by pormake.
# Topology dft, (4)-cn, num edge types: 1
# Building blocks:
#     Node 0, Type 0, BuildingBlock: QUQFOY_clean_sbu_3, # of connection points: 4
#     Node 1, Type 0, BuildingBlock: QUQFOY_clean_sbu_3, # of connection points: 4
#     Node 2, Type 0, BuildingBlock: QUQFOY_clean_sbu_3, # of connection points: 4
#     Node 3, Type 0, BuildingBlock: QUQFOY_clean_sbu_3, # of connection points: 4
#     Node 4, Type 0, BuildingBlock: QUQFOY_clean_sbu_3, # of connection points: 4
#     Node 5, Type 0, BuildingBlock: QUQFOY_clean_sbu_3, # of connection points: 4
#     Node 6, Type 0, BuildingBlock: QUQFOY_clean_sbu_3, # of connection points: 4
#     Node 7, Type 0, BuildingBlock: QUQFOY_clean_sbu_3, # of connection points: 4
#     Edge 8, Type (0, 0), BuildingBlock: AJUNOK_clean_linker_0, # of connection points: 2
#     Edge 9, Type (0, 0), BuildingBlock: AJUNOK_clean_linker_0, # of connection points: 2
#     Edge 10, Type (0, 0), BuildingBlock: AJUNOK_clean_linker_0, # of connection points: 2
#     Edge 11, Type (0, 0), BuildingBlock: AJUNOK_clean_linker_0, # of connection points: 2
#     Edge 12, Type (0, 0), BuildingBlock: AJUNOK_clean_linker_0, # of connection points: 2
#     Edge 13, Type (0, 0), BuildingBlock: AJUNOK_clean_linker_0, # of connection points: 2
#     Edge 14, Type (0, 0), BuildingBlock: AJUNOK_clean_linker_0, # of connection points: 2
#     Edge 15, Type (0, 0), BuildingBlock: AJUNOK_clean_linker_0, # of connection points: 2
#     Edge 16, Type (0, 0), BuildingBlock: AJUNOK_clean_linker_0, # of connection points: 2
#     Edge 17, Type (0, 0), BuildingBlock: AJUNOK_clean_linker_0, # of connection points: 2
#     Edge 18, Type (0, 0), BuildingBlock: AJUNOK_clean_linker_0, # of connection points: 2
#     Edge 19, Type (0, 0), BuildingBlock: AJUNOK_clean_linker_0, # of connection points: 2
#     Edge 20, Type (0, 0), BuildingBlock: AJUNOK_clean_linker_0, # of connection points: 2
#     Edge 21, Type (0, 0), BuildingBlock: AJUNOK_clean_linker_0, # of connection points: 2
#     Edge 22, Type (0, 0), BuildingBlock: AJUNOK_clean_linker_0, # of connection points: 2
#     Edge 23, Type (0, 0), BuildingBlock: AJUNOK_clean_linker_0, # of connection points: 2
# Relax obj value: 0.179
# Max RMSD: 0.171
# Mean RMSD: 0.171
data_MOF--net-dft--node1-QUQFOY_clean_sbu_3--edge1-AJUNOK_clean_linker_0
_symmetry_space_group_name_H-M    P1
_symmetry_Int_Tables_number       1
_symmetry_cell_setting            triclinic
loop_
_symmetry_equiv_pos_as_xyz
'x, y, z'
_cell_length_a     26.634011
_cell_length_b     26.808327
_cell_length_c     31.28261
_cell_angle_alpha  89.929755
_cell_angle_beta   90.18969
_cell_angle_gamma 90.140183
loop_
_atom_site_label
_atom_site_type_symbol
_atom_site_fract_x
_atom_site_fract_y
_atom_site_fract_z
_atom_type_partial_charge
C0 C 0.25123 0.93153 0.17542 0.0
O1 O 0.22881 0.94047 0.1404 0.0
Cd2 Cd 0.24707 0.0112 0.0988 0.0
O3 O 0.28687 0.95955 0.18859 0.0
Cd4 Cd 0.33641 0.03179 0.1619 0.0
C5 C 0.23328 0.10161 0.1766 0.0
O6 O 0.33547 -0.00158 0.09119 0.0
O7 O 0.36218 0.07381 0.09399 0.0
O8 O 0.40879 -0.00966 0.19308 0.0
C9 C 0.35659 0.03422 0.07233 0.0
O10 O 0.21515 0.07903 0.14424 0.0
C11 C 0.43002 0.03014 0.20571 0.0
O12 O 0.27731 0.09192 0.18981 0.0
O13 O 0.40632 0.07054 0.19954 0.0
C14 C 0.13048 0.25191 0.67399 0.0
O15 O 0.12348 0.23187 0.63773 0.0
Cd16 Cd 0.05363 0.25112 0.5952 0.0
O17 O 0.10161 0.28641 0.68748 0.0
Cd18 Cd 0.03086 0.33763 0.65965 0.0
C19 C 0.96163 0.2344 0.67167 0.0
O20 O 0.06759 0.33921 0.59034 0.0
O21 O -0.00816 0.36582 0.59093 0.0
O22 O 0.07021 0.40858 0.69448 0.0
C23 C 0.03264 0.36086 0.57059 0.0
O24 O -0.01377 0.21665 0.6404 0.0
C25 C 0.02921 0.42821 0.70633 0.0
O26 O 0.96932 0.27857 0.68457 0.0
O27 O -0.0107 0.4042 0.69793 0.0
C28 C 0.82216 0.12935 0.17724 0.0
O29 O 0.84437 0.12156 0.14204 0.0
Cd30 Cd 0.82693 0.05136 0.09974 0.0
O31 O 0.78644 0.10101 0.18957 0.0
Cd32 Cd 0.73644 0.02948 0.16208 0.0
C33 C 0.84018 0.96083 0.1779 0.0
O34 O 0.73852 0.0638 0.09166 0.0
O35 O 0.70929 -0.0107 0.09384 0.0
O36 O 0.66418 0.07082 0.19316 0.0
C37 C 0.71678 0.02869 0.07229 0.0
O38 O 0.85901 -0.01518 0.14666 0.0
C39 C 0.64302 0.03092 0.20565 0.0
O40 O 0.79538 0.96867 0.18977 0.0
O41 O 0.66679 -0.00938 0.19952 0.0
C42 C 0.9383 0.82216 0.67673 0.0
O43 O 0.95153 0.84559 0.64329 0.0
Cd44 Cd 0.02046 0.82166 0.60037 0.0
O45 O 0.96114 0.78276 0.68854 0.0
Cd46 Cd 0.03051 0.73054 0.66295 0.0
C47 C 0.10902 0.82785 0.67949 0.0
O48 O 5e-05 0.73514 0.59109 0.0
O49 O 0.07268 0.70133 0.59649 0.0
O50 O -0.01337 0.65924 0.69315 0.0
C51 C 0.03475 0.71105 0.57336 0.0
O52 O 0.09325 0.84651 0.6445 0.0
C53 C 0.02608 0.63871 0.70773 0.0
O54 O 0.09114 0.78707 0.69333 0.0
O55 O 0.06705 0.66225 0.70277 0.0
C56 C 0.24533 0.12679 0.78491 0.0
O57 O 0.22147 0.11393 0.81825 0.0
Cd58 Cd 0.2444 0.04492 0.86126 0.0
O59 O 0.28424 0.10298 0.77311 0.0
Cd60 Cd 0.33527 0.03225 0.79849 0.0
C61 C 0.23656 0.95522 0.78338 0.0
O62 O 0.33177 0.06261 0.87035 0.0
O63 O 0.36299 -0.01082 0.86504 0.0
O64 O 0.40703 0.07594 0.7688 0.0
C65 C 0.3547 0.02712 0.88812 0.0
O66 O 0.21883 0.97225 0.81817 0.0
C67 C 0.42833 0.03687 0.75491 0.0
O68 O 0.27723 0.97241 0.76824 0.0
O69 O 0.40484 -0.00397 0.75977 0.0
C70 C 0.94236 0.24845 0.28849 0.0
O71 O 0.95223 0.227 0.3237 0.0
Cd72 Cd 0.02493 0.24595 0.36308 0.0
O73 O 0.97022 0.28358 0.27433 0.0
Cd74 Cd 0.04343 0.33438 0.29791 0.0
C75 C 0.11223 0.23139 0.28233 0.0
O76 O 0.01153 0.33385 0.36881 0.0
O77 O 0.08615 0.36354 0.3648 0.0
O78 O -0.00098 0.40404 0.26586 0.0
C79 C 0.0471 0.35637 0.38709 0.0
O80 O 0.08963 0.21328 0.31461 0.0
C81 C 0.03821 0.42605 0.25253 0.0
O82 O 0.10336 0.2754 0.26947 0.0
O83 O 0.07969 0.40389 0.25863 0.0
C84 C 0.82035 0.94413 0.78673 0.0
O85 O 0.84216 0.95304 0.82203 0.0
Cd86 Cd 0.8239 0.02442 0.8619 0.0
O87 O 0.78498 0.97206 0.77306 0.0
Cd88 Cd 0.73434 0.04375 0.79913 0.0
C89 C 0.83741 0.11171 0.78117 0.0
O90 O 0.73568 0.00955 0.86923 0.0
O91 O 0.70849 0.0847 0.86764 0.0
O92 O 0.663 0.00103 0.76735 0.0
C93 C 0.71414 0.04453 0.88858 0.0
O94 O 0.8564 0.08864 0.81288 0.0
C95 C 0.64102 0.04053 0.75515 0.0
O96 O 0.79234 0.10392 0.76981 0.0
O97 O 0.66378 0.08141 0.76197 0.0
C98 C 0.13227 0.81297 0.28772 0.0
O99 O 0.12508 0.83394 0.32353 0.0
Cd100 Cd 0.05301 0.81624 0.36383 0.0
O101 O 0.10277 0.77865 0.27456 0.0
Cd102 Cd 0.0299 0.72885 0.30005 0.0
C103 C 0.96339 0.83296 0.28445 0.0
O104 O 0.06328 0.72789 0.37083 0.0
O105 O -0.01322 0.70306 0.36742 0.0
O106 O 0.07254 0.65835 0.26815 0.0
C107 C 0.02668 0.70752 0.38935 0.0
O108 O -0.01237 0.85044 0.31623 0.0
C109 C 0.03287 0.63699 0.2549 0.0
O110 O 0.97023 0.78848 0.27197 0.0
O111 O -0.00816 0.65974 0.26123 0.0
C112 C 0.36197 0.07602 0.00125 0.0
C113 C 0.36438 0.03222 0.02572 0.0
C114 C 0.36101 0.07388 0.95657 0.0
C115 C 0.36309 0.02792 0.93479 0.0
H116 H 0.35823 0.11203 0.01663 0.0
H117 H 0.35706 0.10846 0.93899 0.0
S118 S 0.37675 0.90305 -0.01553 0.0
N119 N 0.37386 0.94195 0.02526 0.0
N120 N 0.37262 0.93804 0.94113 0.0
C121 C 0.36899 -0.01588 0.95889 0.0
C122 C 0.36942 -0.01373 0.00443 0.0
C123 C -0.00654 0.36655 0.49834 0.0
C124 C 0.03657 0.36891 0.52411 0.0
C125 C -0.00257 0.36487 0.4538 0.0
C126 C 0.04457 0.36607 0.43346 0.0
H127 H 0.9566 0.36321 0.51261 0.0
H128 H 0.96325 0.36083 0.43523 0.0
S129 S 0.1683 0.3801 0.48673 0.0
N130 N 0.1275 0.37806 0.52633 0.0
N131 N 0.13481 0.37539 0.44239 0.0
C132 C 0.08771 0.37228 0.45877 0.0
C133 C 0.08372 0.3735 0.5042 0.0
C134 C 0.71037 0.08335 0.96087 0.0
C135 C 0.70606 0.04086 0.93503 0.0
C136 C 0.71172 0.07899 0.00545 0.0
C137 C 0.70821 0.03209 0.02571 0.0
H138 H 0.71543 0.11987 0.94663 0.0
H139 H 0.71718 0.11261 0.02411 0.0
S140 S 0.68878 0.91032 0.97202 0.0
N141 N 0.69287 0.95105 0.93255 0.0
N142 N 0.69485 0.94299 0.01646 0.0
C143 C 0.70025 -0.01026 0.00023 0.0
C144 C 0.69938 -0.00589 0.95482 0.0
C145 C -0.01549 0.70534 0.46031 0.0
C146 C 0.02824 0.69972 0.43595 0.0
C147 C -0.01302 0.70689 0.50496 0.0
C148 C 0.03311 0.70221 0.52681 0.0
H149 H 0.94858 0.71125 0.44481 0.0
H150 H 0.9525 0.71339 0.52247 0.0
S151 S 0.15729 0.67928 0.4775 0.0
N152 N 0.11822 0.68422 0.43662 0.0
N153 N 0.12266 0.68645 0.52073 0.0
C154 C 0.07655 0.69297 0.50286 0.0
C155 C 0.07416 0.69196 0.45736 0.0
C156 C 0.51021 0.07554 0.21851 0.0
C157 C 0.48315 0.03043 0.21943 0.0
C158 C 0.56271 0.07573 0.21841 0.0
C159 C 0.58993 0.03084 0.21938 0.0
H160 H 0.49098 0.11076 0.21422 0.0
H161 H 0.58181 0.11111 0.21415 0.0
S162 S 0.53666 0.90394 0.23433 0.0
N163 N 0.48719 0.94067 0.23037 0.0
N164 N 0.58605 0.94097 0.23045 0.0
C165 C 0.56337 -0.01393 0.22606 0.0
C166 C 0.50984 -0.01412 0.22599 0.0
C167 C 0.07248 0.50801 0.72347 0.0
C168 C 0.02763 0.48033 0.72155 0.0
C169 C 0.07167 0.56012 0.72387 0.0
C170 C 0.02595 0.58624 0.72215 0.0
H171 H 0.10853 0.48962 0.72097 0.0
H172 H 0.10715 0.57978 0.7216 0.0
S173 S 0.8985 0.53108 0.73023 0.0
N174 N 0.93654 0.48262 0.72806 0.0
N175 N 0.93509 0.58083 0.72844 0.0
C176 C 0.98106 0.55906 0.72638 0.0
C177 C 0.98188 0.5059 0.72621 0.0
C178 C 0.56024 0.08433 0.74202 0.0
C179 C 0.58801 0.03979 0.74117 0.0
C180 C 0.50776 0.08343 0.74206 0.0
C181 C 0.48131 0.03798 0.74105 0.0
H182 H 0.57888 0.11993 0.74636 0.0
H183 H 0.48808 0.11837 0.74632 0.0
S184 S 0.53664 0.91223 0.72617 0.0
N185 N 0.58548 0.94999 0.73018 0.0
N186 N 0.48664 0.94823 0.72995 0.0
C187 C 0.50858 -0.00622 0.73433 0.0
C188 C 0.56209 -0.0053 0.7345 0.0
C189 C 0.08132 0.50686 0.23901 0.0
C190 C 0.0367 0.47869 0.23859 0.0
C191 C 0.07997 0.55897 0.23982 0.0
C192 C 0.03398 0.58467 0.24005 0.0
H193 H 0.11742 0.48875 0.24257 0.0
H194 H 0.1151 0.57891 0.24379 0.0
S195 S 0.90756 0.52828 0.22613 0.0
N196 N 0.94605 0.48019 0.22889 0.0
N197 N 0.94345 0.57837 0.23016 0.0
C198 C -0.01043 0.55711 0.23355 0.0
C199 C -0.00904 0.50395 0.2329 0.0
C200 C 0.19467 0.20679 0.2509 0.0
C201 C 0.14294 0.19853 0.25555 0.0
C202 C 0.22372 0.17557 0.22482 0.0
C203 C 0.20157 0.13618 0.20156 0.0
H204 H 0.21283 0.23703 0.26798 0.0
H205 H 0.26375 0.18238 0.22275 0.0
S206 S 0.06659 0.10132 0.20184 0.0
N207 N 0.07034 0.14942 0.23462 0.0
N208 N 0.12428 0.09164 0.18458 0.0
C209 C 0.14948 0.12859 0.20531 0.0
C210 C 0.12031 0.15957 0.23261 0.0
C211 C 0.88222 0.21902 0.71196 0.0
C212 C 0.92884 0.20168 0.6972 0.0
C213 C 0.85251 0.18969 0.73922 0.0
C214 C 0.86957 0.14314 0.75395 0.0
H215 H 0.86861 0.25539 0.70222 0.0
H216 H 0.81638 0.20382 0.74939 0.0
S217 S -0.01079 0.08147 0.72517 0.0
N218 N -0.00956 0.13498 0.69897 0.0
N219 N 0.93558 0.08081 0.75153 0.0
C220 C 0.91626 0.12565 0.7397 0.0
C221 C 0.94568 0.15471 0.71095 0.0
C222 C 0.88405 0.85037 0.24408 0.0
C223 C 0.9315 0.86626 0.25853 0.0
C224 C 0.85442 0.88114 0.21785 0.0
C225 C 0.87231 0.92777 0.20386 0.0
H226 H 0.86955 0.81421 0.25352 0.0
H227 H 0.81759 0.86818 0.20803 0.0
S228 S -0.00538 -0.01436 0.23186 0.0
N229 N -0.00499 0.93144 0.25699 0.0
N230 N 0.94032 -0.01169 0.20633 0.0
C231 C 0.92 0.94363 0.21757 0.0
C232 C 0.94937 0.91309 0.24528 0.0
C233 C 0.17944 0.88903 0.68778 0.0
C234 C 0.14463 0.85627 0.70653 0.0
C235 C 0.21061 0.91926 0.71306 0.0
C236 C 0.20724 0.91875 0.758 0.0
H237 H 0.18223 0.89175 0.65331 0.0
H238 H 0.23618 0.94464 0.69713 0.0
S239 S 0.12302 0.83871 0.82287 0.0
N240 N 0.1097 0.82388 0.77289 0.0
N241 N 0.16748 0.88161 0.82021 0.0
C242 C 0.17325 0.88551 0.77717 0.0
C243 C 0.1422 0.85401 0.75149 0.0
C244 C 0.838 0.91028 0.71451 0.0
C245 C 0.84092 0.90489 0.7591 0.0
C246 C 0.86729 0.88073 0.68765 0.0
C247 C 0.89992 0.84446 0.70451 0.0
H248 H 0.81581 0.93983 0.70032 0.0
H249 H 0.86626 0.88816 0.65362 0.0
S250 S 0.91378 0.80964 0.81884 0.0
N251 N 0.87331 0.85617 0.81875 0.0
N252 N 0.92827 0.80025 0.76823 0.0
C253 C 0.89941 0.83544 0.7488 0.0
C254 C 0.86992 0.86585 0.77616 0.0
C255 C 0.23484 0.89793 0.24802 0.0
C256 C 0.23095 0.89237 0.20352 0.0
C257 C 0.20545 0.869 0.27544 0.0
C258 C 0.17143 0.83335 0.25929 0.0
H259 H 0.2578 0.92728 0.26173 0.0
H260 H 0.20729 0.87687 0.30938 0.0
S261 S 0.15673 0.79654 0.14554 0.0
N262 N 0.19759 0.84293 0.14475 0.0
N263 N 0.14233 0.78815 0.19633 0.0
C264 C 0.17153 0.8236 0.21511 0.0
C265 C 0.20127 0.85334 0.18717 0.0
C266 C 0.15888 0.22893 0.74698 0.0
C267 C 0.168 0.22977 0.70282 0.0
C268 C 0.18651 0.1977 0.77393 0.0
C269 C 0.22449 0.16668 0.75766 0.0
H270 H 0.12788 0.24966 0.76044 0.0
H271 H 0.17624 0.19604 0.80737 0.0
S272 S 0.26937 0.16323 0.64545 0.0
N273 N 0.22218 0.20302 0.64482 0.0
N274 N 0.27461 0.14443 0.69553 0.0
C275 C 0.23726 0.17104 0.71421 0.0
C276 C 0.20879 0.20256 0.68673 0.0
C277 C 0.90589 0.2328 0.21663 0.0
C278 C 0.90241 0.22759 0.26119 0.0
C279 C 0.87658 0.2034 0.18946 0.0
C280 C 0.84254 0.16808 0.20591 0.0
H281 H 0.934 0.25696 0.20251 0.0
H282 H 0.88287 0.20637 0.15535 0.0
S283 S 0.81135 0.14867 0.32029 0.0
N284 N 0.85648 0.19099 0.32065 0.0
N285 N 0.8011 0.13559 0.26945 0.0
C286 C 0.83474 0.16655 0.25032 0.0
C287 C 0.86486 0.19633 0.27804 0.0
loop_
_geom_bond_atom_site_label_1
_geom_bond_atom_site_label_2
_geom_bond_distance
_geom_bond_site_symmetry_2
_ccdc_geom_bond_type
C0 O1 1.306 . S
C0 O3 1.160 . S
O1 C0 1.306 . S
O1 Cd2 2.228 1_565 S
Cd2 O1 2.228 1_545 S
Cd2 O6 2.273 . S
Cd2 O10 2.277 . S
O3 C0 1.160 . S
O3 Cd4 2.203 1_565 S
Cd4 O3 2.203 1_545 S
Cd4 O6 2.411 . S
Cd4 O7 2.333 . S
Cd4 O8 2.352 1_545 S
Cd4 O12 2.277 . S
Cd4 O13 2.356 . S
C5 O10 1.209 . S
C5 O12 1.226 . S
O6 Cd2 2.273 . S
O6 Cd4 2.411 . S
O6 C9 1.320 . S
O7 Cd4 2.333 . S
O7 C9 1.214 . S
O8 Cd4 2.352 1_565 S
O8 C11 1.258 1_565 S
C9 O6 1.320 . S
C9 O7 1.214 . S
O10 Cd2 2.277 . S
O10 C5 1.209 . S
C11 O8 1.258 1_545 S
C11 O13 1.282 . S
O12 Cd4 2.277 . S
O12 C5 1.226 . S
O13 Cd4 2.356 . S
O13 C11 1.282 . S
C14 O15 1.306 . S
C14 O17 1.160 . S
O15 C14 1.306 . S
O15 Cd16 2.228 . S
Cd16 O15 2.228 . S
Cd16 O20 2.273 . S
Cd16 O24 2.277 . S
O17 C14 1.160 . S
O17 Cd18 2.203 . S
Cd18 O17 2.203 . S
Cd18 O20 2.411 . S
Cd18 O21 2.333 . S
Cd18 O22 2.352 . S
Cd18 O26 2.277 1_455 S
Cd18 O27 2.356 . S
C19 O24 1.209 1_655 S
C19 O26 1.226 . S
O20 Cd16 2.273 . S
O20 Cd18 2.411 . S
O20 C23 1.320 . S
O21 Cd18 2.333 . S
O21 C23 1.214 . S
O22 Cd18 2.352 . S
O22 C25 1.258 . S
C23 O20 1.320 . S
C23 O21 1.214 . S
O24 Cd16 2.277 . S
O24 C19 1.209 1_455 S
C25 O22 1.258 . S
C25 O27 1.282 . S
O26 Cd18 2.277 1_655 S
O26 C19 1.226 . S
O27 Cd18 2.356 . S
O27 C25 1.282 . S
C28 O29 1.306 . S
C28 O31 1.160 . S
O29 C28 1.306 . S
O29 Cd30 2.228 . S
Cd30 O29 2.228 . S
Cd30 O34 2.273 . S
Cd30 O38 2.277 . S
O31 C28 1.160 . S
O31 Cd32 2.203 . S
Cd32 O31 2.203 . S
Cd32 O34 2.411 . S
Cd32 O35 2.333 . S
Cd32 O36 2.352 . S
Cd32 O40 2.277 1_545 S
Cd32 O41 2.356 . S
C33 O38 1.209 1_565 S
C33 O40 1.226 . S
O34 Cd30 2.273 . S
O34 Cd32 2.411 . S
O34 C37 1.320 . S
O35 Cd32 2.333 . S
O35 C37 1.214 . S
O36 Cd32 2.352 . S
O36 C39 1.258 . S
C37 O34 1.320 . S
C37 O35 1.214 . S
O38 Cd30 2.277 . S
O38 C33 1.209 1_545 S
C39 O36 1.258 . S
C39 O41 1.282 . S
O40 Cd32 2.277 1_565 S
O40 C33 1.226 . S
O41 Cd32 2.356 . S
O41 C39 1.282 . S
C42 O43 1.306 . S
C42 O45 1.160 . S
O43 C42 1.306 . S
O43 Cd44 2.228 1_655 S
Cd44 O43 2.228 1_455 S
Cd44 O48 2.273 . S
Cd44 O52 2.277 . S
O45 C42 1.160 . S
O45 Cd46 2.203 1_655 S
Cd46 O45 2.203 1_455 S
Cd46 O48 2.411 . S
Cd46 O49 2.333 . S
Cd46 O50 2.352 1_455 S
Cd46 O54 2.277 . S
Cd46 O55 2.356 . S
C47 O52 1.209 . S
C47 O54 1.226 . S
O48 Cd44 2.273 . S
O48 Cd46 2.411 . S
O48 C51 1.320 . S
O49 Cd46 2.333 . S
O49 C51 1.214 . S
O50 Cd46 2.352 1_655 S
O50 C53 1.258 1_655 S
C51 O48 1.320 . S
C51 O49 1.214 . S
O52 Cd44 2.277 . S
O52 C47 1.209 . S
C53 O50 1.258 1_455 S
C53 O55 1.282 . S
O54 Cd46 2.277 . S
O54 C47 1.226 . S
O55 Cd46 2.356 . S
O55 C53 1.282 . S
C56 O57 1.306 . S
C56 O59 1.160 . S
O57 C56 1.306 . S
O57 Cd58 2.228 . S
Cd58 O57 2.228 . S
Cd58 O62 2.273 . S
Cd58 O66 2.277 . S
O59 C56 1.160 . S
O59 Cd60 2.203 . S
Cd60 O59 2.203 . S
Cd60 O62 2.411 . S
Cd60 O63 2.333 . S
Cd60 O64 2.352 . S
Cd60 O68 2.277 1_545 S
Cd60 O69 2.356 . S
C61 O66 1.209 1_565 S
C61 O68 1.226 . S
O62 Cd58 2.273 . S
O62 Cd60 2.411 . S
O62 C65 1.320 . S
O63 Cd60 2.333 . S
O63 C65 1.214 . S
O64 Cd60 2.352 . S
O64 C67 1.258 . S
C65 O62 1.320 . S
C65 O63 1.214 . S
O66 Cd58 2.277 . S
O66 C61 1.209 1_545 S
C67 O64 1.258 . S
C67 O69 1.282 . S
O68 Cd60 2.277 1_565 S
O68 C61 1.226 . S
O69 Cd60 2.356 . S
O69 C67 1.282 . S
C70 O71 1.306 . S
C70 O73 1.160 . S
O71 C70 1.306 . S
O71 Cd72 2.228 1_655 S
Cd72 O71 2.228 1_455 S
Cd72 O76 2.273 . S
Cd72 O80 2.277 . S
O73 C70 1.160 . S
O73 Cd74 2.203 1_655 S
Cd74 O73 2.203 1_455 S
Cd74 O76 2.411 . S
Cd74 O77 2.333 . S
Cd74 O78 2.352 1_455 S
Cd74 O82 2.277 . S
Cd74 O83 2.356 . S
C75 O80 1.209 . S
C75 O82 1.226 . S
O76 Cd72 2.273 . S
O76 Cd74 2.411 . S
O76 C79 1.320 . S
O77 Cd74 2.333 . S
O77 C79 1.214 . S
O78 Cd74 2.352 1_655 S
O78 C81 1.258 1_655 S
C79 O76 1.320 . S
C79 O77 1.214 . S
O80 Cd72 2.277 . S
O80 C75 1.209 . S
C81 O78 1.258 1_455 S
C81 O83 1.282 . S
O82 Cd74 2.277 . S
O82 C75 1.226 . S
O83 Cd74 2.356 . S
O83 C81 1.282 . S
C84 O85 1.306 . S
C84 O87 1.160 . S
O85 C84 1.306 . S
O85 Cd86 2.228 1_565 S
Cd86 O85 2.228 1_545 S
Cd86 O90 2.273 . S
Cd86 O94 2.277 . S
O87 C84 1.160 . S
O87 Cd88 2.203 1_565 S
Cd88 O87 2.203 1_545 S
Cd88 O90 2.411 . S
Cd88 O91 2.333 . S
Cd88 O92 2.352 1_545 S
Cd88 O96 2.277 . S
Cd88 O97 2.356 . S
C89 O94 1.209 . S
C89 O96 1.226 . S
O90 Cd86 2.273 . S
O90 Cd88 2.411 . S
O90 C93 1.320 . S
O91 Cd88 2.333 . S
O91 C93 1.214 . S
O92 Cd88 2.352 1_565 S
O92 C95 1.258 1_565 S
C93 O90 1.320 . S
C93 O91 1.214 . S
O94 Cd86 2.277 . S
O94 C89 1.209 . S
C95 O92 1.258 1_545 S
C95 O97 1.282 . S
O96 Cd88 2.277 . S
O96 C89 1.226 . S
O97 Cd88 2.356 . S
O97 C95 1.282 . S
C98 O99 1.306 . S
C98 O101 1.160 . S
O99 C98 1.306 . S
O99 Cd100 2.228 . S
Cd100 O99 2.228 . S
Cd100 O104 2.273 . S
Cd100 O108 2.277 . S
O101 C98 1.160 . S
O101 Cd102 2.203 . S
Cd102 O101 2.203 . S
Cd102 O104 2.411 . S
Cd102 O105 2.333 . S
Cd102 O106 2.352 . S
Cd102 O110 2.277 1_455 S
Cd102 O111 2.356 . S
C103 O108 1.209 1_655 S
C103 O110 1.226 . S
O104 Cd100 2.273 . S
O104 Cd102 2.411 . S
O104 C107 1.320 . S
O105 Cd102 2.333 . S
O105 C107 1.214 . S
O106 Cd102 2.352 . S
O106 C109 1.258 . S
C107 O104 1.320 . S
C107 O105 1.214 . S
O108 Cd100 2.277 . S
O108 C103 1.209 1_455 S
C109 O106 1.258 . S
C109 O111 1.282 . S
O110 Cd102 2.277 1_655 S
O110 C103 1.226 . S
O111 Cd102 2.356 . S
O111 C109 1.282 . S
C112 C113 1.369 . S
C112 C114 1.419 1_554 S
C112 H116 0.930 . S
C113 C112 1.369 . S
C113 C122 1.429 . S
C114 C112 1.419 1_556 S
C114 C115 1.363 . S
C114 H117 0.929 . S
C115 C114 1.363 . S
C115 C121 1.428 . S
H116 C112 0.930 . S
H117 C114 0.929 . S
S118 N119 1.613 . S
S118 N120 1.610 1_554 S
N119 S118 1.613 . S
N119 C122 1.350 1_565 S
N120 S118 1.610 1_556 S
N120 C121 1.351 1_565 S
C121 C115 1.428 . S
C121 N120 1.351 1_545 S
C121 C122 1.434 1_556 S
C122 C113 1.429 . S
C122 N119 1.350 1_545 S
C122 C121 1.434 1_554 S
C123 C124 1.369 . S
C123 C125 1.419 . S
C123 H127 0.930 1_455 S
C124 C123 1.369 . S
C124 C133 1.429 . S
C125 C123 1.419 . S
C125 C126 1.363 . S
C125 H128 0.929 1_455 S
C126 C125 1.363 . S
C126 C132 1.428 . S
H127 C123 0.930 1_655 S
H128 C125 0.929 1_655 S
S129 N130 1.613 . S
S129 N131 1.610 . S
N130 S129 1.613 . S
N130 C133 1.350 . S
N131 S129 1.610 . S
N131 C132 1.351 . S
C132 C126 1.428 . S
C132 N131 1.351 . S
C132 C133 1.434 . S
C133 C124 1.429 . S
C133 N130 1.350 . S
C133 C132 1.434 . S
C134 C135 1.369 . S
C134 C136 1.419 1_556 S
C134 H138 0.930 . S
C135 C134 1.369 . S
C135 C144 1.429 . S
C136 C134 1.419 1_554 S
C136 C137 1.363 . S
C136 H139 0.929 . S
C137 C136 1.363 . S
C137 C143 1.428 . S
H138 C134 0.930 . S
H139 C136 0.929 . S
S140 N141 1.613 . S
S140 N142 1.610 1_556 S
N141 S140 1.613 . S
N141 C144 1.350 1_565 S
N142 S140 1.610 1_554 S
N142 C143 1.351 1_565 S
C143 C137 1.428 . S
C143 N142 1.351 1_545 S
C143 C144 1.434 1_554 S
C144 C135 1.429 . S
C144 N141 1.350 1_545 S
C144 C143 1.434 1_556 S
C145 C146 1.369 . S
C145 C147 1.419 . S
C145 H149 0.930 1_455 S
C146 C145 1.369 . S
C146 C155 1.429 . S
C147 C145 1.419 . S
C147 C148 1.363 . S
C147 H150 0.929 1_455 S
C148 C147 1.363 . S
C148 C154 1.428 . S
H149 C145 0.930 1_655 S
H150 C147 0.929 1_655 S
S151 N152 1.613 . S
S151 N153 1.610 . S
N152 S151 1.613 . S
N152 C155 1.350 . S
N153 S151 1.610 . S
N153 C154 1.351 . S
C154 C148 1.428 . S
C154 N153 1.351 . S
C154 C155 1.434 . S
C155 C146 1.429 . S
C155 N152 1.350 . S
C155 C154 1.434 . S
C156 C157 1.369 . S
C156 C158 1.419 . S
C156 H160 0.930 . S
C157 C156 1.369 . S
C157 C166 1.429 1_545 S
C158 C156 1.419 . S
C158 C159 1.363 . S
C158 H161 0.929 . S
C159 C158 1.363 . S
C159 C165 1.428 . S
H160 C156 0.930 . S
H161 C158 0.929 . S
S162 N163 1.613 . S
S162 N164 1.610 . S
N163 S162 1.613 . S
N163 C166 1.350 . S
N164 S162 1.610 . S
N164 C165 1.351 1_565 S
C165 C159 1.428 . S
C165 N164 1.351 1_545 S
C165 C166 1.434 1_545 S
C166 C157 1.429 1_565 S
C166 N163 1.350 . S
C166 C165 1.434 1_565 S
C167 C168 1.369 . S
C167 C169 1.419 . S
C167 H171 0.930 . S
C168 C167 1.369 . S
C168 C177 1.429 . S
C169 C167 1.419 . S
C169 C170 1.363 . S
C169 H172 0.929 . S
C170 C169 1.363 . S
C170 C176 1.428 . S
H171 C167 0.930 . S
H172 C169 0.929 . S
S173 N174 1.613 . S
S173 N175 1.610 . S
N174 S173 1.613 . S
N174 C177 1.350 1_655 S
N175 S173 1.610 . S
N175 C176 1.351 1_655 S
C176 C170 1.428 . S
C176 N175 1.351 1_455 S
C176 C177 1.434 . S
C177 C168 1.429 . S
C177 N174 1.350 1_455 S
C177 C176 1.434 . S
C178 C179 1.369 . S
C178 C180 1.419 . S
C178 H182 0.930 . S
C179 C178 1.369 . S
C179 C188 1.429 . S
C180 C178 1.419 . S
C180 C181 1.363 . S
C180 H183 0.929 . S
C181 C180 1.363 . S
C181 C187 1.428 . S
H182 C178 0.930 . S
H183 C180 0.929 . S
S184 N185 1.613 . S
S184 N186 1.610 1_565 S
N185 S184 1.613 . S
N185 C188 1.350 1_565 S
N186 S184 1.610 1_545 S
N186 C187 1.351 . S
C187 C181 1.428 . S
C187 N186 1.351 . S
C187 C188 1.434 . S
C188 C179 1.429 . S
C188 N185 1.350 1_545 S
C188 C187 1.434 . S
C189 C190 1.369 . S
C189 C191 1.419 . S
C189 H193 0.930 . S
C190 C189 1.369 . S
C190 C199 1.429 1_455 S
C191 C189 1.419 . S
C191 C192 1.363 . S
C191 H194 0.929 . S
C192 C191 1.363 . S
C192 C198 1.428 . S
H193 C189 0.930 . S
H194 C191 0.929 . S
S195 N196 1.613 . S
S195 N197 1.610 . S
N196 S195 1.613 . S
N196 C199 1.350 . S
N197 S195 1.610 . S
N197 C198 1.351 1_655 S
C198 C192 1.428 . S
C198 N197 1.351 1_455 S
C198 C199 1.434 1_455 S
C199 C190 1.429 1_655 S
C199 N196 1.350 . S
C199 C198 1.434 1_655 S
C200 C201 1.369 . S
C200 C202 1.419 . S
C200 H204 0.930 . S
C201 C200 1.369 . S
C201 C210 1.429 . S
C202 C200 1.419 . S
C202 C203 1.363 . S
C202 H205 0.929 . S
C203 C202 1.363 . S
C203 C209 1.428 . S
H204 C200 0.930 . S
H205 C202 0.929 . S
S206 N207 1.613 . S
S206 N208 1.610 . S
N207 S206 1.613 . S
N207 C210 1.350 . S
N208 S206 1.610 . S
N208 C209 1.351 . S
C209 C203 1.428 . S
C209 N208 1.351 . S
C209 C210 1.434 . S
C210 C201 1.429 . S
C210 N207 1.350 . S
C210 C209 1.434 . S
C211 C212 1.369 . S
C211 C213 1.419 . S
C211 H215 0.930 . S
C212 C211 1.369 . S
C212 C221 1.429 . S
C213 C211 1.419 . S
C213 C214 1.363 . S
C213 H216 0.929 . S
C214 C213 1.363 . S
C214 C220 1.428 . S
H215 C211 0.930 . S
H216 C213 0.929 . S
S217 N218 1.613 . S
S217 N219 1.610 1_455 S
N218 S217 1.613 . S
N218 C221 1.350 1_455 S
N219 S217 1.610 1_655 S
N219 C220 1.351 . S
C220 C214 1.428 . S
C220 N219 1.351 . S
C220 C221 1.434 . S
C221 C212 1.429 . S
C221 N218 1.350 1_655 S
C221 C220 1.434 . S
C222 C223 1.369 . S
C222 C224 1.419 . S
C222 H226 0.930 . S
C223 C222 1.369 . S
C223 C232 1.429 . S
C224 C222 1.419 . S
C224 C225 1.363 . S
C224 H227 0.929 . S
C225 C224 1.363 . S
C225 C231 1.428 . S
H226 C222 0.930 . S
H227 C224 0.929 . S
S228 N229 1.613 . S
S228 N230 1.610 1_455 S
N229 S228 1.613 . S
N229 C232 1.350 1_455 S
N230 S228 1.610 1_655 S
N230 C231 1.351 . S
C231 C225 1.428 . S
C231 N230 1.351 . S
C231 C232 1.434 . S
C232 C223 1.429 . S
C232 N229 1.350 1_655 S
C232 C231 1.434 . S
C233 C234 1.369 . S
C233 C235 1.419 . S
C233 H237 0.930 . S
C234 C233 1.369 . S
C234 C243 1.429 . S
C235 C233 1.419 . S
C235 C236 1.363 . S
C235 H238 0.929 . S
C236 C235 1.363 . S
C236 C242 1.428 . S
H237 C233 0.930 . S
H238 C235 0.929 . S
S239 N240 1.613 . S
S239 N241 1.610 . S
N240 S239 1.613 . S
N240 C243 1.350 . S
N241 S239 1.610 . S
N241 C242 1.351 . S
C242 C236 1.428 . S
C242 N241 1.351 . S
C242 C243 1.434 . S
C243 C234 1.429 . S
C243 N240 1.350 . S
C243 C242 1.434 . S
C244 C245 1.369 . S
C244 C246 1.419 . S
C244 H248 0.930 . S
C245 C244 1.369 . S
C245 C254 1.429 . S
C246 C244 1.419 . S
C246 C247 1.363 . S
C246 H249 0.929 . S
C247 C246 1.363 . S
C247 C253 1.428 . S
H248 C244 0.930 . S
H249 C246 0.929 . S
S250 N251 1.613 . S
S250 N252 1.610 . S
N251 S250 1.613 . S
N251 C254 1.350 . S
N252 S250 1.610 . S
N252 C253 1.351 . S
C253 C247 1.428 . S
C253 N252 1.351 . S
C253 C254 1.434 . S
C254 C245 1.429 . S
C254 N251 1.350 . S
C254 C253 1.434 . S
C255 C256 1.369 . S
C255 C257 1.419 . S
C255 H259 0.930 . S
C256 C255 1.369 . S
C256 C265 1.429 . S
C257 C255 1.419 . S
C257 C258 1.363 . S
C257 H260 0.929 . S
C258 C257 1.363 . S
C258 C264 1.428 . S
H259 C255 0.930 . S
H260 C257 0.929 . S
S261 N262 1.613 . S
S261 N263 1.610 . S
N262 S261 1.613 . S
N262 C265 1.350 . S
N263 S261 1.610 . S
N263 C264 1.351 . S
C264 C258 1.428 . S
C264 N263 1.351 . S
C264 C265 1.434 . S
C265 C256 1.429 . S
C265 N262 1.350 . S
C265 C264 1.434 . S
C266 C267 1.369 . S
C266 C268 1.419 . S
C266 H270 0.930 . S
C267 C266 1.369 . S
C267 C276 1.429 . S
C268 C266 1.419 . S
C268 C269 1.363 . S
C268 H271 0.929 . S
C269 C268 1.363 . S
C269 C275 1.428 . S
H270 C266 0.930 . S
H271 C268 0.929 . S
S272 N273 1.613 . S
S272 N274 1.610 . S
N273 S272 1.613 . S
N273 C276 1.350 . S
N274 S272 1.610 . S
N274 C275 1.351 . S
C275 C269 1.428 . S
C275 N274 1.351 . S
C275 C276 1.434 . S
C276 C267 1.429 . S
C276 N273 1.350 . S
C276 C275 1.434 . S
C277 C278 1.369 . S
C277 C279 1.419 . S
C277 H281 0.930 . S
C278 C277 1.369 . S
C278 C287 1.429 . S
C279 C277 1.419 . S
C279 C280 1.363 . S
C279 H282 0.929 . S
C280 C279 1.363 . S
C280 C286 1.428 . S
H281 C277 0.930 . S
H282 C279 0.929 . S
S283 N284 1.613 . S
S283 N285 1.610 . S
N284 S283 1.613 . S
N284 C287 1.350 . S
N285 S283 1.610 . S
N285 C286 1.351 . S
C286 C280 1.428 . S
C286 N285 1.351 . S
C286 C287 1.434 . S
C287 C278 1.429 . S
C287 N284 1.350 . S
C287 C286 1.434 . S
C113 C9 1.567 . S
C115 C65 1.569 . S
C124 C23 1.566 . S
C126 C79 1.568 . S
C135 C93 1.567 . S
C137 C37 1.568 . S
C146 C107 1.566 . S
C148 C51 1.568 . S
C157 C11 1.387 . S
C159 C39 1.377 . S
C168 C25 1.377 . S
C170 C53 1.383 . S
C179 C95 1.385 . S
C181 C67 1.378 . S
C190 C81 1.387 . S
C192 C109 1.379 . S
C201 C75 1.525 . S
C203 C5 1.525 . S
C212 C19 1.525 . S
C214 C89 1.525 . S
C223 C103 1.525 . S
C225 C33 1.525 . S
C234 C47 1.524 . S
C236 C61 1.526 . S
C245 C84 1.249 . S
C247 C42 1.247 . S
C256 C0 1.252 . S
C258 C98 1.256 . S
C267 C14 1.247 . S
C269 C56 1.248 . S
C278 C70 1.246 . S
C280 C28 1.250 . S
