# Generated by pormake.
# Topology dft, (4)-cn, num edge types: 1
# Building blocks:
#     Node 0, Type 0, BuildingBlock: QUQFOY_clean_sbu_3, # of connection points: 4
#     Node 1, Type 0, BuildingBlock: QUQFOY_clean_sbu_3, # of connection points: 4
#     Node 2, Type 0, BuildingBlock: QUQFOY_clean_sbu_3, # of connection points: 4
#     Node 3, Type 0, BuildingBlock: QUQFOY_clean_sbu_3, # of connection points: 4
#     Node 4, Type 0, BuildingBlock: QUQFOY_clean_sbu_3, # of connection points: 4
#     Node 5, Type 0, BuildingBlock: QUQFOY_clean_sbu_3, # of connection points: 4
#     Node 6, Type 0, BuildingBlock: QUQFOY_clean_sbu_3, # of connection points: 4
#     Node 7, Type 0, BuildingBlock: QUQFOY_clean_sbu_3, # of connection points: 4
#     Edge 8, Type (0, 0), BuildingBlock: CIFDUS_clean_linker_0, # of connection points: 2
#     Edge 9, Type (0, 0), BuildingBlock: CIFDUS_clean_linker_0, # of connection points: 2
#     Edge 10, Type (0, 0), BuildingBlock: CIFDUS_clean_linker_0, # of connection points: 2
#     Edge 11, Type (0, 0), BuildingBlock: CIFDUS_clean_linker_0, # of connection points: 2
#     Edge 12, Type (0, 0), BuildingBlock: CIFDUS_clean_linker_0, # of connection points: 2
#     Edge 13, Type (0, 0), BuildingBlock: CIFDUS_clean_linker_0, # of connection points: 2
#     Edge 14, Type (0, 0), BuildingBlock: CIFDUS_clean_linker_0, # of connection points: 2
#     Edge 15, Type (0, 0), BuildingBlock: CIFDUS_clean_linker_0, # of connection points: 2
#     Edge 16, Type (0, 0), BuildingBlock: CIFDUS_clean_linker_0, # of connection points: 2
#     Edge 17, Type (0, 0), BuildingBlock: CIFDUS_clean_linker_0, # of connection points: 2
#     Edge 18, Type (0, 0), BuildingBlock: CIFDUS_clean_linker_0, # of connection points: 2
#     Edge 19, Type (0, 0), BuildingBlock: CIFDUS_clean_linker_0, # of connection points: 2
#     Edge 20, Type (0, 0), BuildingBlock: CIFDUS_clean_linker_0, # of connection points: 2
#     Edge 21, Type (0, 0), BuildingBlock: CIFDUS_clean_linker_0, # of connection points: 2
#     Edge 22, Type (0, 0), BuildingBlock: CIFDUS_clean_linker_0, # of connection points: 2
#     Edge 23, Type (0, 0), BuildingBlock: CIFDUS_clean_linker_0, # of connection points: 2
# Relax obj value: 0.179
# Max RMSD: 0.170
# Mean RMSD: 0.170
data_MOF--net-dft--node1-QUQFOY_clean_sbu_3--edge1-CIFDUS_clean_linker_0
_symmetry_space_group_name_H-M    P1
_symmetry_Int_Tables_number       1
_symmetry_cell_setting            triclinic
loop_
_symmetry_equiv_pos_as_xyz
'x, y, z'
_cell_length_a     31.678743
_cell_length_b     31.783783
_cell_length_c     36.64226
_cell_angle_alpha  90.033413
_cell_angle_beta   90.180849
_cell_angle_gamma 89.950627
loop_
_atom_site_label
_atom_site_type_symbol
_atom_site_fract_x
_atom_site_fract_y
_atom_site_fract_z
_atom_type_partial_charge
C0 C 0.26489 0.96629 0.18799 0.0
O1 O 0.24461 0.97526 0.15909 0.0
Cd2 Cd 0.25924 0.0366 0.12429 0.0
O3 O 0.29589 -0.01116 0.19846 0.0
Cd4 Cd 0.33639 0.05031 0.17653 0.0
C5 C 0.25098 0.10921 0.1937 0.0
O6 O 0.33327 0.03008 0.11332 0.0
O7 O 0.35293 0.09407 0.1221 0.0
O8 O 0.3976 0.01155 0.19739 0.0
C9 C 0.34849 0.06348 0.10018 0.0
O10 O 0.23611 0.09495 0.16381 0.0
C11 C 0.41642 0.04313 0.21101 0.0
O12 O 0.28643 0.09664 0.20578 0.0
O13 O 0.39729 0.07823 0.2095 0.0
C14 C 0.08474 0.26128 0.6843 0.0
O15 O 0.07861 0.24346 0.65372 0.0
Cd16 Cd 0.02141 0.26087 0.61413 0.0
O17 O 0.06137 0.29169 0.6946 0.0
Cd18 Cd 0.00219 0.3342 0.66991 0.0
C19 C 0.94051 0.24851 0.67584 0.0
O20 O 0.0268 0.33523 0.60751 0.0
O21 O 0.96197 0.35363 0.61438 0.0
O22 O 0.03874 0.39479 0.69487 0.0
C23 C -0.00639 0.35035 0.59347 0.0
O24 O 0.95798 0.23642 0.64635 0.0
C25 C 0.00594 0.41264 0.70731 0.0
O26 O 0.95237 0.28201 0.69185 0.0
O27 O 0.97124 0.39305 0.70363 0.0
C28 C 0.80154 0.07846 0.18043 0.0
O29 O 0.82017 0.07333 0.15011 0.0
Cd30 Cd 0.80607 0.01489 0.11127 0.0
O31 O 0.7726 0.05332 0.19061 0.0
Cd32 Cd 0.73373 -0.00808 0.16647 0.0
C33 C 0.82302 0.93579 0.17378 0.0
O34 O 0.73111 0.01805 0.10487 0.0
O35 O 0.71426 0.95279 0.11026 0.0
O36 O 0.6735 0.0264 0.19335 0.0
C37 C 0.71621 -0.01474 0.09024 0.0
O38 O 0.83462 0.95362 0.14434 0.0
C39 C 0.65619 -0.00695 0.20502 0.0
O40 O 0.78836 0.94556 0.18897 0.0
O41 O 0.67586 0.95872 0.19978 0.0
C42 C 0.97615 0.8039 0.68304 0.0
O43 O -0.01629 0.82133 0.65258 0.0
Cd44 Cd 0.04224 0.80267 0.61538 0.0
O45 O -0.00101 0.7736 0.69454 0.0
Cd46 Cd 0.05931 0.73077 0.67264 0.0
C47 C 0.12091 0.81647 0.67933 0.0
O48 O 0.0356 0.7282 0.61013 0.0
O49 O 0.1003 0.70967 0.61799 0.0
O50 O 0.02187 0.6709 0.69766 0.0
C51 C 0.06863 0.71212 0.59685 0.0
O52 O 0.10451 0.82794 0.64914 0.0
C53 C 0.05437 0.65276 0.71052 0.0
O54 O 0.10848 0.78327 0.69539 0.0
O55 O 0.08926 0.67207 0.70733 0.0
C56 C 0.24804 0.12022 0.79264 0.0
O57 O 0.23095 0.11191 0.82309 0.0
Cd58 Cd 0.25486 0.05833 0.86372 0.0
O59 O 0.28125 0.10089 0.78242 0.0
Cd60 Cd 0.32922 0.04682 0.80822 0.0
C61 C 0.25053 0.97546 0.80404 0.0
O62 O 0.32853 0.07242 0.87061 0.0
O63 O 0.35352 0.01 0.86382 0.0
O64 O 0.3895 0.08435 0.78282 0.0
C65 C 0.3475 0.04133 0.88459 0.0
O66 O 0.23658 -0.0085 0.83351 0.0
C67 C 0.40689 0.0517 0.76963 0.0
O68 O 0.28226 -0.0087 0.78797 0.0
O69 O 0.38712 0.01722 0.77315 0.0
C70 C 0.93259 0.24929 0.28701 0.0
O71 O 0.94442 0.23071 0.31596 0.0
Cd72 Cd 0.00115 0.2538 0.35364 0.0
O73 O 0.94993 0.28353 0.27698 0.0
Cd74 Cd 0.00562 0.33017 0.30154 0.0
C75 C 0.07676 0.25302 0.28786 0.0
O76 O -0.01571 0.32624 0.36467 0.0
O77 O 0.04639 0.35168 0.35646 0.0
O78 O 0.96764 0.392 0.2793 0.0
C79 C 0.01582 0.34518 0.37797 0.0
O80 O 0.06521 0.23725 0.31817 0.0
C81 C 0.00015 0.40875 0.26519 0.0
O82 O 0.05834 0.28522 0.27496 0.0
O83 O 0.03434 0.38801 0.26699 0.0
C84 C 0.80959 0.94663 0.78468 0.0
O85 O 0.82634 0.95508 0.81534 0.0
Cd86 Cd 0.8022 0.00763 0.8564 0.0
O87 O 0.77634 0.96571 0.77397 0.0
Cd88 Cd 0.7282 0.01957 0.8002 0.0
C89 C 0.8066 0.09129 0.7977 0.0
O90 O 0.72896 -0.00843 0.86143 0.0
O91 O 0.7041 0.05425 0.85716 0.0
O92 O 0.66765 -0.01708 0.77389 0.0
C93 C 0.70988 0.02174 0.87657 0.0
O94 O 0.82029 0.07498 0.8272 0.0
C95 C 0.64972 0.01613 0.76233 0.0
O96 O 0.77511 0.0755 0.78104 0.0
O97 O 0.66959 0.05045 0.76667 0.0
C98 C 0.1246 0.80129 0.29132 0.0
O99 O 0.11664 0.81872 0.32172 0.0
Cd100 Cd 0.06165 0.79781 0.36193 0.0
O101 O 0.1038 0.76923 0.28064 0.0
Cd102 Cd 0.04701 0.72466 0.30585 0.0
C103 C 0.97985 0.80678 0.30144 0.0
O104 O 0.07325 0.72383 0.36783 0.0
O105 O 0.00959 0.70163 0.36161 0.0
O106 O 0.08023 0.66309 0.27861 0.0
C107 C 0.04162 0.70618 0.38205 0.0
O108 O -0.00425 0.81983 0.33135 0.0
C109 C 0.04596 0.64812 0.26605 0.0
O110 O -0.00538 0.77447 0.28556 0.0
O111 O 0.01277 0.66979 0.27085 0.0
H112 H 0.36072 0.00067 0.05205 0.0
H113 H 0.34902 0.13562 0.0594 0.0
H114 H 0.35015 0.14084 -0.0073 0.0
H115 H 0.3489 0.10625 0.93254 0.0
H116 H 0.3623 0.97132 0.9257 0.0
H117 H 0.36642 0.96685 -0.00784 0.0
C118 C 0.35876 0.03126 0.03902 0.0
C119 C 0.35422 0.06767 0.06044 0.0
C120 C 0.35955 0.03395 0.00088 0.0
C121 C 0.35242 0.10717 0.04339 0.0
C122 C 0.35288 0.11012 0.00531 0.0
C123 C 0.35307 0.07591 0.94563 0.0
C124 C 0.35473 0.0391 0.92434 0.0
C125 C 0.35556 0.07362 0.98382 0.0
C126 C 0.36077 7e-05 0.94152 0.0
C127 C 0.36299 -0.00251 0.9795 0.0
H128 H 0.05769 0.35873 0.54548 0.0
H129 H 0.9218 0.35389 0.55213 0.0
H130 H 0.9168 0.35426 0.48553 0.0
H131 H 0.95133 0.35041 0.42573 0.0
H132 H 0.08711 0.35694 0.41891 0.0
H133 H 0.09194 0.36181 0.48545 0.0
C134 C 0.02698 0.35813 0.53231 0.0
C135 C -0.00982 0.35574 0.55359 0.0
C136 C 0.02438 0.35844 0.49411 0.0
C137 C 0.95057 0.35561 0.5363 0.0
C138 C 0.94771 0.35565 0.49825 0.0
C139 C -0.01804 0.35321 0.43883 0.0
C140 C 0.01885 0.35274 0.4176 0.0
C141 C -0.01557 0.35616 0.47694 0.0
C142 C 0.0583 0.35709 0.43475 0.0
C143 C 0.06106 0.35972 0.47275 0.0
H144 H 0.70817 0.95399 0.92103 0.0
H145 H 0.69637 0.08927 0.92122 0.0
H146 H 0.69425 0.08934 -0.01208 0.0
H147 H 0.70206 0.05147 0.04587 0.0
H148 H 0.71291 0.91614 0.04586 0.0
H149 H 0.70869 0.91546 0.97915 0.0
C150 C 0.70473 -0.01655 0.93569 0.0
C151 C 0.70304 0.02163 0.91635 0.0
C152 C 0.70359 -0.01679 0.97393 0.0
C153 C 0.69791 0.05951 0.93555 0.0
C154 C 0.69687 0.05957 0.97365 0.0
C155 C 0.70313 0.02179 0.03125 0.0
C156 C 0.7084 -0.01605 0.05059 0.0
C157 C 0.70069 0.0217 -0.00693 0.0
C158 C 0.70903 0.94567 0.03148 0.0
C159 C 0.70679 0.9453 -0.00661 0.0
H160 H 0.10752 0.70259 0.42901 0.0
H161 H 0.97161 0.6948 0.42419 0.0
H162 H 0.96844 0.69283 0.49081 0.0
H163 H 0.00394 0.69969 0.5501 0.0
H164 H 0.13985 0.70657 0.55514 0.0
H165 H 0.14348 0.70211 0.48853 0.0
C166 C 0.07724 0.70006 0.44257 0.0
C167 C 0.03981 0.69946 0.42182 0.0
C168 C 0.07569 0.699 0.48078 0.0
C169 C 0.00083 0.6955 0.43961 0.0
C170 C -0.001 0.69454 0.47767 0.0
C171 C 0.03438 0.69983 0.5366 0.0
C172 C 0.07155 0.70407 0.55733 0.0
C173 C 0.03616 0.69728 0.49847 0.0
C174 C 0.11081 0.7035 0.53968 0.0
C175 C 0.11287 0.70113 0.50164 0.0
H176 H 0.46214 0.97201 0.22126 0.0
H177 H 0.47004 0.10737 0.22807 0.0
H178 H 0.54669 0.10294 0.23366 0.0
H179 H 0.61118 0.06156 0.22515 0.0
H180 H 0.60336 0.92642 0.21579 0.0
H181 H 0.5269 0.92974 0.22348 0.0
C182 C 0.48057 0.00048 0.22476 0.0
C183 C 0.46065 0.03998 0.22334 0.0
C184 C 0.52464 -0.00224 0.22713 0.0
C185 C 0.48474 0.07659 0.22862 0.0
C186 C 0.52859 0.0741 0.23163 0.0
C187 C 0.59284 0.03276 0.22562 0.0
C188 C 0.61265 -0.00608 0.21904 0.0
C189 C 0.5489 0.035 0.22914 0.0
C190 C 0.58873 0.95677 0.22041 0.0
C191 C 0.54498 0.95866 0.22457 0.0
H192 H 0.07565 0.45861 0.7234 0.0
H193 H 0.93959 0.46529 0.72043 0.0
H194 H 0.94267 0.54156 0.72771 0.0
H195 H -0.01582 0.60653 0.72387 0.0
H196 H 0.12027 0.59988 0.7249 0.0
H197 H 0.11698 0.52342 0.73021 0.0
C198 C 0.04665 0.47667 0.72515 0.0
C199 C 0.0075 0.45649 0.72057 0.0
C200 C 0.04867 0.52056 0.72862 0.0
C201 C 0.97016 0.48014 0.72352 0.0
C202 C 0.97189 0.5238 0.72748 0.0
C203 C 0.01312 0.58842 0.72611 0.0
C204 C 0.05239 0.60871 0.72318 0.0
C205 C 0.011 0.54443 0.72835 0.0
C206 C 0.08962 0.58496 0.72672 0.0
C207 C 0.08777 0.54119 0.72953 0.0
H208 H 0.59948 0.08359 0.74947 0.0
H209 H 0.59983 0.94779 0.7488 0.0
H210 H 0.52294 0.94728 0.74408 0.0
H211 H 0.45608 -0.01491 0.75147 0.0
H212 H 0.456 0.12074 0.75718 0.0
H213 H 0.53228 0.12166 0.74799 0.0
C214 C 0.58283 0.05387 0.74737 0.0
C215 C 0.60524 0.01578 0.75015 0.0
C216 C 0.53859 0.05381 0.74608 0.0
C217 C 0.58325 0.97755 0.74713 0.0
C218 C 0.53926 0.97723 0.74462 0.0
C219 C 0.47259 0.01491 0.74985 0.0
C220 C 0.45057 0.05275 0.75568 0.0
C221 C 0.5166 0.01513 0.74585 0.0
C222 C 0.47233 0.09114 0.75323 0.0
C223 C 0.51598 0.09168 0.7481 0.0
H224 H 0.06759 0.45536 0.24515 0.0
H225 H 0.93217 0.46095 0.25705 0.0
H226 H 0.93413 0.53739 0.25052 0.0
H227 H 0.97546 0.60234 0.25333 0.0
H228 H 0.11143 0.5965 0.24763 0.0
H229 H 0.10808 0.52038 0.23909 0.0
C230 C 0.03837 0.47317 0.24545 0.0
C231 C -0.00011 0.4527 0.25233 0.0
C232 C 0.03994 0.51712 0.24323 0.0
C233 C 0.96226 0.47611 0.25228 0.0
C234 C 0.96339 0.51982 0.2487 0.0
C235 C 0.00432 0.58457 0.24929 0.0
C236 C 0.04367 0.60481 0.2518 0.0
C237 C 0.00224 0.54071 0.246 0.0
C238 C 0.08078 0.58147 0.24628 0.0
C239 C 0.07889 0.53795 0.24155 0.0
H240 H 0.14249 0.20476 0.3115 0.0
H241 H 0.08355 0.25399 0.21414 0.0
H242 H 0.13316 0.21502 0.17622 0.0
H243 H 0.19087 0.16393 0.17056 0.0
H244 H 0.25283 0.11776 0.2676 0.0
H245 H 0.20487 0.1588 0.30573 0.0
C246 C 0.14077 0.20708 0.282 0.0
C247 C 0.10926 0.23187 0.26565 0.0
C248 C 0.1699 0.18513 0.26027 0.0
C249 C 0.10763 0.23513 0.2274 0.0
C250 C 0.13587 0.21275 0.20565 0.0
C251 C 0.19404 0.16317 0.20004 0.0
C252 C 0.22503 0.13765 0.21625 0.0
C253 C 0.16677 0.18723 0.22177 0.0
C254 C 0.22923 0.1373 0.25447 0.0
C255 C 0.20169 0.16056 0.27631 0.0
H256 H 0.92579 0.23922 0.74813 0.0
H257 H 0.88475 0.19595 0.64223 0.0
H258 H 0.83641 0.1461 0.671 0.0
H259 H 0.80976 0.11149 0.72606 0.0
H260 H 0.85579 0.14997 0.83186 0.0
H261 H 0.89816 0.20524 0.8034 0.0
C262 C 0.90577 0.2193 0.7314 0.0
C263 C 0.9086 0.22131 0.69315 0.0
C264 C 0.87925 0.18971 0.74813 0.0
C265 C 0.88309 0.19486 0.67174 0.0
C266 C 0.85552 0.16637 0.68817 0.0
C267 C 0.82862 0.13235 0.74293 0.0
C268 C 0.82957 0.12679 0.781 0.0
C269 C 0.8539 0.16302 0.72631 0.0
C270 C 0.85465 0.15361 0.80248 0.0
C271 C 0.87886 0.18517 0.78623 0.0
H272 H 0.96305 0.81043 0.22925 0.0
H273 H 0.92074 0.8574 0.3334 0.0
H274 H 0.86585 0.89892 0.30289 0.0
H275 H 0.83215 0.92405 0.24641 0.0
H276 H 0.87907 0.88199 0.14219 0.0
H277 H 0.92991 0.83594 0.17293 0.0
C278 C 0.94153 0.82945 0.2453 0.0
C279 C 0.94567 0.83072 0.28351 0.0
C280 C 0.91104 0.85406 0.22754 0.0
C281 C 0.91812 0.85601 0.30394 0.0
C282 C 0.88677 0.87966 0.28652 0.0
C283 C 0.85319 0.90438 0.23048 0.0
C284 C 0.85176 0.90603 0.19214 0.0
C285 C 0.88322 0.8792 0.24832 0.0
C286 C 0.87967 0.88111 0.17174 0.0
C287 C 0.90869 0.85487 0.18929 0.0
H288 H 0.13323 0.82671 0.75196 0.0
H289 H 0.17737 0.86907 0.64698 0.0
H290 H 0.22441 0.91959 0.67679 0.0
H291 H 0.24921 0.95487 0.73237 0.0
H292 H 0.20022 0.91708 0.83707 0.0
H293 H 0.15889 0.86145 0.80775 0.0
C294 C 0.15364 0.84659 0.73567 0.0
C295 C 0.15207 0.84411 0.69737 0.0
C296 C 0.17942 0.87654 0.75295 0.0
C297 C 0.17807 0.87051 0.67652 0.0
C298 C 0.20489 0.89939 0.69354 0.0
C299 C 0.2299 0.93411 0.74883 0.0
C300 C 0.22784 0.93996 0.78684 0.0
C301 C 0.20528 0.90315 0.73169 0.0
C302 C 0.20221 0.91325 0.80775 0.0
C303 C 0.17861 0.88146 0.79101 0.0
H304 H 0.86265 0.88406 0.80452 0.0
H305 H 0.80494 0.94219 0.71036 0.0
H306 H 0.84944 0.89996 0.67002 0.0
H307 H 0.90987 0.85237 0.66207 0.0
H308 H 0.96692 0.79391 0.75645 0.0
H309 H 0.91713 0.83022 0.79624 0.0
C310 C 0.85948 0.88711 0.77514 0.0
C311 C 0.83113 0.9166 0.76038 0.0
C312 C 0.88519 0.86296 0.75225 0.0
C313 C 0.82669 0.91975 0.72233 0.0
C314 C 0.85227 0.89581 0.69929 0.0
C315 C 0.91111 0.84726 0.69132 0.0
C316 C 0.94244 0.82108 0.70637 0.0
C317 C 0.88245 0.86825 0.71402 0.0
C318 C 0.94322 0.81409 0.74422 0.0
C319 C 0.91488 0.83495 0.767 0.0
H320 H 0.21718 0.89962 0.16746 0.0
H321 H 0.27895 0.95556 0.26076 0.0
H322 H 0.24426 0.90533 0.30111 0.0
H323 H 0.18957 0.85192 0.31036 0.0
H324 H 0.12808 0.79559 0.21715 0.0
H325 H 0.17008 0.83919 0.17613 0.0
C326 C 0.22346 0.90041 0.19658 0.0
C327 C 0.24987 0.93167 0.21124 0.0
C328 C 0.20334 0.8716 0.21959 0.0
C329 C 0.25849 0.9319 0.24887 0.0
C330 C 0.23854 0.90335 0.27197 0.0
C331 C 0.18586 0.84876 0.28104 0.0
C332 C 0.15532 0.82126 0.26676 0.0
C333 C 0.20984 0.87404 0.25772 0.0
C334 C 0.1513 0.81675 0.22877 0.0
C335 C 0.17509 0.84184 0.20532 0.0
H336 H 0.15284 0.21406 0.66626 0.0
H337 H 0.08942 0.27058 0.75816 0.0
H338 H 0.13733 0.23449 0.80008 0.0
H339 H 0.19226 0.1814 0.81058 0.0
H340 H 0.25638 0.1256 0.71871 0.0
H341 H 0.21344 0.16739 0.67674 0.0
C342 C 0.14981 0.21881 0.69546 0.0
C343 C 0.11728 0.24437 0.70915 0.0
C344 C 0.1774 0.19799 0.71936 0.0
C345 C 0.11414 0.2509 0.74697 0.0
C346 C 0.14138 0.23014 0.77096 0.0
C347 C 0.19715 0.17876 0.78137 0.0
C348 C 0.22693 0.15003 0.76772 0.0
C349 C 0.17235 0.20276 0.75745 0.0
C350 C 0.23352 0.14742 0.72988 0.0
C351 C 0.20884 0.17113 0.70587 0.0
H352 H 0.87489 0.19061 0.30596 0.0
H353 H 0.92236 0.26023 0.21372 0.0
H354 H 0.88226 0.21526 0.17216 0.0
H355 H 0.84129 0.15075 0.16197 0.0
H356 H 0.79332 0.08162 0.2543 0.0
H357 H 0.82584 0.13211 0.29599 0.0
C358 C 0.8759 0.19633 0.27679 0.0
C359 C 0.90205 0.22812 0.26284 0.0
C360 C 0.85311 0.17022 0.25311 0.0
C361 C 0.90254 0.2358 0.22509 0.0
C362 C 0.87988 0.20993 0.2013 0.0
C363 C 0.83758 0.14706 0.19122 0.0
C364 C 0.81571 0.11219 0.20512 0.0
C365 C 0.85629 0.17616 0.21498 0.0
C366 C 0.81029 0.10813 0.24299 0.0
C367 C 0.82898 0.13687 0.26684 0.0
loop_
_geom_bond_atom_site_label_1
_geom_bond_atom_site_label_2
_geom_bond_distance
_geom_bond_site_symmetry_2
_ccdc_geom_bond_type
C0 O1 1.306 . S
C0 O3 1.160 . S
O1 C0 1.306 . S
O1 Cd2 2.228 1_565 S
Cd2 O1 2.228 1_545 S
Cd2 O6 2.273 . S
Cd2 O10 2.277 . S
O3 C0 1.160 . S
O3 Cd4 2.203 1_565 S
Cd4 O3 2.203 1_545 S
Cd4 O6 2.411 . S
Cd4 O7 2.333 . S
Cd4 O8 2.352 1_545 S
Cd4 O12 2.277 . S
Cd4 O13 2.356 . S
C5 O10 1.209 . S
C5 O12 1.226 . S
O6 Cd2 2.273 . S
O6 Cd4 2.411 . S
O6 C9 1.320 . S
O7 Cd4 2.333 . S
O7 C9 1.214 . S
O8 Cd4 2.352 1_565 S
O8 C11 1.258 1_565 S
C9 O6 1.320 . S
C9 O7 1.214 . S
O10 Cd2 2.277 . S
O10 C5 1.209 . S
C11 O8 1.258 1_545 S
C11 O13 1.282 . S
O12 Cd4 2.277 . S
O12 C5 1.226 . S
O13 Cd4 2.356 . S
O13 C11 1.282 . S
C14 O15 1.306 . S
C14 O17 1.160 . S
O15 C14 1.306 . S
O15 Cd16 2.228 . S
Cd16 O15 2.228 . S
Cd16 O20 2.273 . S
Cd16 O24 2.277 . S
O17 C14 1.160 . S
O17 Cd18 2.203 . S
Cd18 O17 2.203 . S
Cd18 O20 2.411 . S
Cd18 O21 2.333 . S
Cd18 O22 2.352 . S
Cd18 O26 2.277 1_455 S
Cd18 O27 2.356 . S
C19 O24 1.208 1_655 S
C19 O26 1.226 . S
O20 Cd16 2.273 . S
O20 Cd18 2.411 . S
O20 C23 1.320 . S
O21 Cd18 2.333 . S
O21 C23 1.214 . S
O22 Cd18 2.352 . S
O22 C25 1.258 . S
C23 O20 1.320 . S
C23 O21 1.214 . S
O24 Cd16 2.277 . S
O24 C19 1.208 1_455 S
C25 O22 1.258 . S
C25 O27 1.282 . S
O26 Cd18 2.277 1_655 S
O26 C19 1.226 . S
O27 Cd18 2.356 . S
O27 C25 1.282 . S
C28 O29 1.306 . S
C28 O31 1.160 . S
O29 C28 1.306 . S
O29 Cd30 2.228 . S
Cd30 O29 2.228 . S
Cd30 O34 2.273 . S
Cd30 O38 2.277 . S
O31 C28 1.160 . S
O31 Cd32 2.203 . S
Cd32 O31 2.203 . S
Cd32 O34 2.411 . S
Cd32 O35 2.333 . S
Cd32 O36 2.352 . S
Cd32 O40 2.277 1_545 S
Cd32 O41 2.356 . S
C33 O38 1.208 1_565 S
C33 O40 1.226 . S
O34 Cd30 2.273 . S
O34 Cd32 2.411 . S
O34 C37 1.320 . S
O35 Cd32 2.333 . S
O35 C37 1.214 . S
O36 Cd32 2.352 . S
O36 C39 1.258 . S
C37 O34 1.320 . S
C37 O35 1.214 . S
O38 Cd30 2.277 . S
O38 C33 1.208 1_545 S
C39 O36 1.258 . S
C39 O41 1.282 . S
O40 Cd32 2.277 1_565 S
O40 C33 1.226 . S
O41 Cd32 2.356 . S
O41 C39 1.282 . S
C42 O43 1.306 . S
C42 O45 1.160 . S
O43 C42 1.306 . S
O43 Cd44 2.228 1_655 S
Cd44 O43 2.228 1_455 S
Cd44 O48 2.273 . S
Cd44 O52 2.277 . S
O45 C42 1.160 . S
O45 Cd46 2.203 1_655 S
Cd46 O45 2.203 1_455 S
Cd46 O48 2.411 . S
Cd46 O49 2.333 . S
Cd46 O50 2.352 1_455 S
Cd46 O54 2.277 . S
Cd46 O55 2.356 . S
C47 O52 1.209 . S
C47 O54 1.226 . S
O48 Cd44 2.273 . S
O48 Cd46 2.411 . S
O48 C51 1.320 . S
O49 Cd46 2.333 . S
O49 C51 1.214 . S
O50 Cd46 2.352 1_655 S
O50 C53 1.258 1_655 S
C51 O48 1.320 . S
C51 O49 1.214 . S
O52 Cd44 2.277 . S
O52 C47 1.209 . S
C53 O50 1.258 1_455 S
C53 O55 1.282 . S
O54 Cd46 2.277 . S
O54 C47 1.226 . S
O55 Cd46 2.356 . S
O55 C53 1.282 . S
C56 O57 1.306 . S
C56 O59 1.160 . S
O57 C56 1.306 . S
O57 Cd58 2.228 . S
Cd58 O57 2.228 . S
Cd58 O62 2.273 . S
Cd58 O66 2.277 . S
O59 C56 1.160 . S
O59 Cd60 2.203 . S
Cd60 O59 2.203 . S
Cd60 O62 2.411 . S
Cd60 O63 2.333 . S
Cd60 O64 2.352 . S
Cd60 O68 2.277 1_545 S
Cd60 O69 2.356 . S
C61 O66 1.208 1_565 S
C61 O68 1.226 . S
O62 Cd58 2.273 . S
O62 Cd60 2.411 . S
O62 C65 1.320 . S
O63 Cd60 2.333 . S
O63 C65 1.214 . S
O64 Cd60 2.352 . S
O64 C67 1.258 . S
C65 O62 1.320 . S
C65 O63 1.214 . S
O66 Cd58 2.277 . S
O66 C61 1.208 1_545 S
C67 O64 1.258 . S
C67 O69 1.282 . S
O68 Cd60 2.277 1_565 S
O68 C61 1.226 . S
O69 Cd60 2.356 . S
O69 C67 1.282 . S
C70 O71 1.306 . S
C70 O73 1.160 . S
O71 C70 1.306 . S
O71 Cd72 2.228 1_655 S
Cd72 O71 2.228 1_455 S
Cd72 O76 2.273 . S
Cd72 O80 2.277 . S
O73 C70 1.160 . S
O73 Cd74 2.203 1_655 S
Cd74 O73 2.203 1_455 S
Cd74 O76 2.411 . S
Cd74 O77 2.333 . S
Cd74 O78 2.352 1_455 S
Cd74 O82 2.277 . S
Cd74 O83 2.356 . S
C75 O80 1.209 . S
C75 O82 1.226 . S
O76 Cd72 2.273 . S
O76 Cd74 2.411 . S
O76 C79 1.320 . S
O77 Cd74 2.333 . S
O77 C79 1.214 . S
O78 Cd74 2.352 1_655 S
O78 C81 1.258 1_655 S
C79 O76 1.320 . S
C79 O77 1.214 . S
O80 Cd72 2.277 . S
O80 C75 1.209 . S
C81 O78 1.258 1_455 S
C81 O83 1.282 . S
O82 Cd74 2.277 . S
O82 C75 1.226 . S
O83 Cd74 2.356 . S
O83 C81 1.282 . S
C84 O85 1.306 . S
C84 O87 1.160 . S
O85 C84 1.306 . S
O85 Cd86 2.228 1_565 S
Cd86 O85 2.228 1_545 S
Cd86 O90 2.273 . S
Cd86 O94 2.277 . S
O87 C84 1.160 . S
O87 Cd88 2.203 1_565 S
Cd88 O87 2.203 1_545 S
Cd88 O90 2.411 . S
Cd88 O91 2.333 . S
Cd88 O92 2.352 1_545 S
Cd88 O96 2.277 . S
Cd88 O97 2.356 . S
C89 O94 1.209 . S
C89 O96 1.226 . S
O90 Cd86 2.273 . S
O90 Cd88 2.411 . S
O90 C93 1.320 . S
O91 Cd88 2.333 . S
O91 C93 1.214 . S
O92 Cd88 2.352 1_565 S
O92 C95 1.258 1_565 S
C93 O90 1.320 . S
C93 O91 1.214 . S
O94 Cd86 2.277 . S
O94 C89 1.209 . S
C95 O92 1.258 1_545 S
C95 O97 1.282 . S
O96 Cd88 2.277 . S
O96 C89 1.226 . S
O97 Cd88 2.356 . S
O97 C95 1.282 . S
C98 O99 1.306 . S
C98 O101 1.160 . S
O99 C98 1.306 . S
O99 Cd100 2.228 . S
Cd100 O99 2.228 . S
Cd100 O104 2.273 . S
Cd100 O108 2.277 . S
O101 C98 1.160 . S
O101 Cd102 2.203 . S
Cd102 O101 2.203 . S
Cd102 O104 2.411 . S
Cd102 O105 2.333 . S
Cd102 O106 2.352 . S
Cd102 O110 2.277 1_455 S
Cd102 O111 2.356 . S
C103 O108 1.208 1_655 S
C103 O110 1.226 . S
O104 Cd100 2.273 . S
O104 Cd102 2.411 . S
O104 C107 1.320 . S
O105 Cd102 2.333 . S
O105 C107 1.214 . S
O106 Cd102 2.352 . S
O106 C109 1.258 . S
C107 O104 1.320 . S
C107 O105 1.214 . S
O108 Cd100 2.277 . S
O108 C103 1.208 1_455 S
C109 O106 1.258 . S
C109 O111 1.282 . S
O110 Cd102 2.277 1_655 S
O110 C103 1.226 . S
O111 Cd102 2.356 . S
O111 C109 1.282 . S
H112 C118 0.930 1_565 S
H113 C121 0.930 . S
H114 C122 0.930 . S
H115 C123 0.930 . S
H116 C126 0.930 1_565 S
H117 C127 0.930 . S
C118 H112 0.930 1_545 S
C118 C119 1.355 . S
C118 C120 1.415 . S
C119 C118 1.355 . S
C119 C121 1.419 . S
C120 C118 1.415 . S
C120 C125 1.425 1_554 S
C120 C127 1.409 1_544 S
C121 H113 0.930 . S
C121 C119 1.419 . S
C121 C122 1.362 . S
C122 H114 0.930 . S
C122 C121 1.362 . S
C122 C125 1.409 1_554 S
C123 H115 0.930 . S
C123 C124 1.355 . S
C123 C125 1.415 . S
C124 C123 1.355 . S
C124 C126 1.419 . S
C125 C120 1.425 1_556 S
C125 C122 1.409 1_556 S
C125 C123 1.415 . S
C126 H116 0.930 1_545 S
C126 C124 1.419 . S
C126 C127 1.362 1_545 S
C127 H117 0.930 . S
C127 C120 1.409 1_566 S
C127 C126 1.362 1_565 S
H128 C134 0.930 . S
H129 C137 0.930 1_655 S
H130 C138 0.930 . S
H131 C139 0.930 1_655 S
H132 C142 0.930 . S
H133 C143 0.930 . S
C134 H128 0.930 . S
C134 C135 1.355 . S
C134 C136 1.415 . S
C135 C134 1.355 . S
C135 C137 1.419 . S
C136 C134 1.415 . S
C136 C141 1.425 . S
C136 C143 1.409 . S
C137 H129 0.930 1_455 S
C137 C135 1.419 . S
C137 C138 1.362 1_455 S
C138 H130 0.930 . S
C138 C137 1.362 1_655 S
C138 C141 1.409 1_655 S
C139 H131 0.930 1_455 S
C139 C140 1.355 . S
C139 C141 1.415 . S
C140 C139 1.355 . S
C140 C142 1.419 . S
C141 C136 1.425 . S
C141 C138 1.409 1_455 S
C141 C139 1.415 . S
C142 H132 0.930 . S
C142 C140 1.419 . S
C142 C143 1.362 . S
C143 H133 0.930 . S
C143 C136 1.409 . S
C143 C142 1.362 . S
H144 C150 0.930 . S
H145 C153 0.930 . S
H146 C154 0.930 . S
H147 C155 0.930 . S
H148 C158 0.930 . S
H149 C159 0.930 . S
C150 H144 0.930 . S
C150 C151 1.355 . S
C150 C152 1.415 . S
C151 C150 1.355 . S
C151 C153 1.419 . S
C152 C150 1.415 . S
C152 C157 1.425 1_556 S
C152 C159 1.409 1_556 S
C153 H145 0.930 . S
C153 C151 1.419 . S
C153 C154 1.362 . S
C154 H146 0.930 . S
C154 C153 1.362 . S
C154 C157 1.409 1_556 S
C155 H147 0.930 . S
C155 C156 1.355 . S
C155 C157 1.415 . S
C156 C155 1.355 . S
C156 C158 1.419 . S
C157 C152 1.425 1_554 S
C157 C154 1.409 1_554 S
C157 C155 1.415 . S
C158 H148 0.930 . S
C158 C156 1.419 . S
C158 C159 1.362 . S
C159 H149 0.930 . S
C159 C152 1.409 1_554 S
C159 C158 1.362 . S
H160 C166 0.930 . S
H161 C169 0.930 1_655 S
H162 C170 0.930 1_655 S
H163 C171 0.930 . S
H164 C174 0.930 . S
H165 C175 0.930 . S
C166 H160 0.930 . S
C166 C167 1.355 . S
C166 C168 1.415 . S
C167 C166 1.355 . S
C167 C169 1.419 . S
C168 C166 1.415 . S
C168 C173 1.425 . S
C168 C175 1.409 . S
C169 H161 0.930 1_455 S
C169 C167 1.419 . S
C169 C170 1.362 . S
C170 H162 0.930 1_455 S
C170 C169 1.362 . S
C170 C173 1.409 . S
C171 H163 0.930 . S
C171 C172 1.355 . S
C171 C173 1.415 . S
C172 C171 1.355 . S
C172 C174 1.419 . S
C173 C168 1.425 . S
C173 C170 1.409 . S
C173 C171 1.415 . S
C174 H164 0.930 . S
C174 C172 1.419 . S
C174 C175 1.362 . S
C175 H165 0.930 . S
C175 C168 1.409 . S
C175 C174 1.362 . S
H176 C182 0.930 1_565 S
H177 C185 0.930 . S
H178 C186 0.930 . S
H179 C187 0.930 . S
H180 C190 0.930 . S
H181 C191 0.930 1_565 S
C182 H176 0.930 1_545 S
C182 C183 1.355 . S
C182 C184 1.415 . S
C183 C182 1.355 . S
C183 C185 1.419 . S
C184 C182 1.415 . S
C184 C189 1.425 . S
C184 C191 1.409 . S
C185 H177 0.930 . S
C185 C183 1.419 . S
C185 C186 1.362 . S
C186 H178 0.930 . S
C186 C185 1.362 . S
C186 C189 1.409 . S
C187 H179 0.930 . S
C187 C188 1.355 . S
C187 C189 1.415 . S
C188 C187 1.355 . S
C188 C190 1.419 . S
C189 C184 1.425 . S
C189 C186 1.409 . S
C189 C187 1.415 . S
C190 H180 0.930 . S
C190 C188 1.419 . S
C190 C191 1.362 . S
C191 H181 0.930 1_545 S
C191 C184 1.409 . S
C191 C190 1.362 . S
H192 C198 0.930 . S
H193 C201 0.930 . S
H194 C202 0.930 1_655 S
H195 C203 0.930 1_655 S
H196 C206 0.930 . S
H197 C207 0.930 . S
C198 H192 0.930 . S
C198 C199 1.355 . S
C198 C200 1.415 . S
C199 C198 1.355 . S
C199 C201 1.419 . S
C200 C198 1.415 . S
C200 C205 1.425 . S
C200 C207 1.409 . S
C201 H193 0.930 . S
C201 C199 1.419 . S
C201 C202 1.362 . S
C202 H194 0.930 1_455 S
C202 C201 1.362 . S
C202 C205 1.409 . S
C203 H195 0.930 1_455 S
C203 C204 1.355 . S
C203 C205 1.415 . S
C204 C203 1.355 . S
C204 C206 1.419 . S
C205 C200 1.425 . S
C205 C202 1.409 . S
C205 C203 1.415 . S
C206 H196 0.930 . S
C206 C204 1.419 . S
C206 C207 1.362 . S
C207 H197 0.930 . S
C207 C200 1.409 . S
C207 C206 1.362 . S
H208 C214 0.930 . S
H209 C217 0.930 . S
H210 C218 0.930 . S
H211 C219 0.930 . S
H212 C222 0.930 . S
H213 C223 0.930 . S
C214 H208 0.930 . S
C214 C215 1.355 . S
C214 C216 1.415 . S
C215 C214 1.355 . S
C215 C217 1.419 . S
C216 C214 1.415 . S
C216 C221 1.425 . S
C216 C223 1.409 . S
C217 H209 0.930 . S
C217 C215 1.419 . S
C217 C218 1.362 . S
C218 H210 0.930 . S
C218 C217 1.362 . S
C218 C221 1.409 . S
C219 H211 0.930 . S
C219 C220 1.355 . S
C219 C221 1.415 . S
C220 C219 1.355 . S
C220 C222 1.419 . S
C221 C216 1.425 . S
C221 C218 1.409 . S
C221 C219 1.415 . S
C222 H212 0.930 . S
C222 C220 1.419 . S
C222 C223 1.362 . S
C223 H213 0.930 . S
C223 C216 1.409 . S
C223 C222 1.362 . S
H224 C230 0.930 . S
H225 C233 0.930 . S
H226 C234 0.930 . S
H227 C235 0.930 . S
H228 C238 0.930 . S
H229 C239 0.930 . S
C230 H224 0.930 . S
C230 C231 1.355 . S
C230 C232 1.415 . S
C231 C230 1.355 . S
C231 C233 1.419 1_455 S
C232 C230 1.415 . S
C232 C237 1.425 . S
C232 C239 1.409 . S
C233 H225 0.930 . S
C233 C231 1.419 1_655 S
C233 C234 1.362 . S
C234 H226 0.930 . S
C234 C233 1.362 . S
C234 C237 1.409 1_655 S
C235 H227 0.930 . S
C235 C236 1.355 . S
C235 C237 1.415 . S
C236 C235 1.355 . S
C236 C238 1.419 . S
C237 C232 1.425 . S
C237 C234 1.409 1_455 S
C237 C235 1.415 . S
C238 H228 0.930 . S
C238 C236 1.419 . S
C238 C239 1.362 . S
C239 H229 0.930 . S
C239 C232 1.409 . S
C239 C238 1.362 . S
H240 C246 0.930 . S
H241 C249 0.930 . S
H242 C250 0.930 . S
H243 C251 0.930 . S
H244 C254 0.930 . S
H245 C255 0.930 . S
C246 H240 0.930 . S
C246 C247 1.355 . S
C246 C248 1.415 . S
C247 C246 1.355 . S
C247 C249 1.419 . S
C248 C246 1.415 . S
C248 C253 1.425 . S
C248 C255 1.409 . S
C249 H241 0.930 . S
C249 C247 1.419 . S
C249 C250 1.362 . S
C250 H242 0.930 . S
C250 C249 1.362 . S
C250 C253 1.409 . S
C251 H243 0.930 . S
C251 C252 1.355 . S
C251 C253 1.415 . S
C252 C251 1.355 . S
C252 C254 1.419 . S
C253 C248 1.425 . S
C253 C250 1.409 . S
C253 C251 1.415 . S
C254 H244 0.930 . S
C254 C252 1.419 . S
C254 C255 1.362 . S
C255 H245 0.930 . S
C255 C248 1.409 . S
C255 C254 1.362 . S
H256 C262 0.930 . S
H257 C265 0.930 . S
H258 C266 0.930 . S
H259 C267 0.930 . S
H260 C270 0.930 . S
H261 C271 0.930 . S
C262 H256 0.930 . S
C262 C263 1.355 . S
C262 C264 1.415 . S
C263 C262 1.355 . S
C263 C265 1.419 . S
C264 C262 1.415 . S
C264 C269 1.425 . S
C264 C271 1.409 . S
C265 H257 0.930 . S
C265 C263 1.419 . S
C265 C266 1.362 . S
C266 H258 0.930 . S
C266 C265 1.362 . S
C266 C269 1.409 . S
C267 H259 0.930 . S
C267 C268 1.355 . S
C267 C269 1.415 . S
C268 C267 1.355 . S
C268 C270 1.419 . S
C269 C264 1.425 . S
C269 C266 1.409 . S
C269 C267 1.415 . S
C270 H260 0.930 . S
C270 C268 1.419 . S
C270 C271 1.362 . S
C271 H261 0.930 . S
C271 C264 1.409 . S
C271 C270 1.362 . S
H272 C278 0.930 . S
H273 C281 0.930 . S
H274 C282 0.930 . S
H275 C283 0.930 . S
H276 C286 0.930 . S
H277 C287 0.930 . S
C278 H272 0.930 . S
C278 C279 1.355 . S
C278 C280 1.415 . S
C279 C278 1.355 . S
C279 C281 1.419 . S
C280 C278 1.415 . S
C280 C285 1.425 . S
C280 C287 1.409 . S
C281 H273 0.930 . S
C281 C279 1.419 . S
C281 C282 1.362 . S
C282 H274 0.930 . S
C282 C281 1.362 . S
C282 C285 1.409 . S
C283 H275 0.930 . S
C283 C284 1.355 . S
C283 C285 1.415 . S
C284 C283 1.355 . S
C284 C286 1.419 . S
C285 C280 1.425 . S
C285 C282 1.409 . S
C285 C283 1.415 . S
C286 H276 0.930 . S
C286 C284 1.419 . S
C286 C287 1.362 . S
C287 H277 0.930 . S
C287 C280 1.409 . S
C287 C286 1.362 . S
H288 C294 0.930 . S
H289 C297 0.930 . S
H290 C298 0.930 . S
H291 C299 0.930 . S
H292 C302 0.930 . S
H293 C303 0.930 . S
C294 H288 0.930 . S
C294 C295 1.355 . S
C294 C296 1.415 . S
C295 C294 1.355 . S
C295 C297 1.419 . S
C296 C294 1.415 . S
C296 C301 1.425 . S
C296 C303 1.409 . S
C297 H289 0.930 . S
C297 C295 1.419 . S
C297 C298 1.362 . S
C298 H290 0.930 . S
C298 C297 1.362 . S
C298 C301 1.409 . S
C299 H291 0.930 . S
C299 C300 1.355 . S
C299 C301 1.415 . S
C300 C299 1.355 . S
C300 C302 1.419 . S
C301 C296 1.425 . S
C301 C298 1.409 . S
C301 C299 1.415 . S
C302 H292 0.930 . S
C302 C300 1.419 . S
C302 C303 1.362 . S
C303 H293 0.930 . S
C303 C296 1.409 . S
C303 C302 1.362 . S
H304 C310 0.930 . S
H305 C313 0.930 . S
H306 C314 0.930 . S
H307 C315 0.930 . S
H308 C318 0.930 . S
H309 C319 0.930 . S
C310 H304 0.930 . S
C310 C311 1.355 . S
C310 C312 1.415 . S
C311 C310 1.355 . S
C311 C313 1.419 . S
C312 C310 1.415 . S
C312 C317 1.425 . S
C312 C319 1.409 . S
C313 H305 0.930 . S
C313 C311 1.419 . S
C313 C314 1.362 . S
C314 H306 0.930 . S
C314 C313 1.362 . S
C314 C317 1.409 . S
C315 H307 0.930 . S
C315 C316 1.355 . S
C315 C317 1.415 . S
C316 C315 1.355 . S
C316 C318 1.419 . S
C317 C312 1.425 . S
C317 C314 1.409 . S
C317 C315 1.415 . S
C318 H308 0.930 . S
C318 C316 1.419 . S
C318 C319 1.362 . S
C319 H309 0.930 . S
C319 C312 1.409 . S
C319 C318 1.362 . S
H320 C326 0.930 . S
H321 C329 0.930 . S
H322 C330 0.930 . S
H323 C331 0.930 . S
H324 C334 0.930 . S
H325 C335 0.930 . S
C326 H320 0.930 . S
C326 C327 1.355 . S
C326 C328 1.415 . S
C327 C326 1.355 . S
C327 C329 1.419 . S
C328 C326 1.415 . S
C328 C333 1.425 . S
C328 C335 1.409 . S
C329 H321 0.930 . S
C329 C327 1.419 . S
C329 C330 1.362 . S
C330 H322 0.930 . S
C330 C329 1.362 . S
C330 C333 1.409 . S
C331 H323 0.930 . S
C331 C332 1.355 . S
C331 C333 1.415 . S
C332 C331 1.355 . S
C332 C334 1.419 . S
C333 C328 1.425 . S
C333 C330 1.409 . S
C333 C331 1.415 . S
C334 H324 0.930 . S
C334 C332 1.419 . S
C334 C335 1.362 . S
C335 H325 0.930 . S
C335 C328 1.409 . S
C335 C334 1.362 . S
H336 C342 0.930 . S
H337 C345 0.930 . S
H338 C346 0.930 . S
H339 C347 0.930 . S
H340 C350 0.930 . S
H341 C351 0.930 . S
C342 H336 0.930 . S
C342 C343 1.355 . S
C342 C344 1.415 . S
C343 C342 1.355 . S
C343 C345 1.419 . S
C344 C342 1.415 . S
C344 C349 1.425 . S
C344 C351 1.409 . S
C345 H337 0.930 . S
C345 C343 1.419 . S
C345 C346 1.362 . S
C346 H338 0.930 . S
C346 C345 1.362 . S
C346 C349 1.409 . S
C347 H339 0.930 . S
C347 C348 1.355 . S
C347 C349 1.415 . S
C348 C347 1.355 . S
C348 C350 1.419 . S
C349 C344 1.425 . S
C349 C346 1.409 . S
C349 C347 1.415 . S
C350 H340 0.930 . S
C350 C348 1.419 . S
C350 C351 1.362 . S
C351 H341 0.930 . S
C351 C344 1.409 . S
C351 C350 1.362 . S
H352 C358 0.930 . S
H353 C361 0.930 . S
H354 C362 0.930 . S
H355 C363 0.930 . S
H356 C366 0.930 . S
H357 C367 0.930 . S
C358 H352 0.930 . S
C358 C359 1.355 . S
C358 C360 1.415 . S
C359 C358 1.355 . S
C359 C361 1.419 . S
C360 C358 1.415 . S
C360 C365 1.425 . S
C360 C367 1.409 . S
C361 H353 0.930 . S
C361 C359 1.419 . S
C361 C362 1.362 . S
C362 H354 0.930 . S
C362 C361 1.362 . S
C362 C365 1.409 . S
C363 H355 0.930 . S
C363 C364 1.355 . S
C363 C365 1.415 . S
C364 C363 1.355 . S
C364 C366 1.419 . S
C365 C360 1.425 . S
C365 C362 1.409 . S
C365 C363 1.415 . S
C366 H356 0.930 . S
C366 C364 1.419 . S
C366 C367 1.362 . S
C367 H357 0.930 . S
C367 C360 1.409 . S
C367 C366 1.362 . S
C119 C9 1.573 . S
C124 C65 1.574 . S
C135 C23 1.574 . S
C140 C79 1.573 . S
C151 C93 1.554 . S
C156 C37 1.571 . S
C167 C107 1.562 . S
C172 C51 1.578 . S
C183 C11 1.275 . S
C188 C39 1.278 . S
C199 C25 1.297 . S
C204 C53 1.279 . S
C215 C95 1.298 . S
C220 C67 1.323 . S
C231 C81 1.344 . S
C236 C109 1.352 . S
C247 C75 1.515 . S
C252 C5 1.516 . S
C263 C19 1.526 . S
C268 C89 1.514 . S
C279 C103 1.520 . S
C284 C33 1.531 . S
C295 C47 1.520 . S
C300 C61 1.531 . S
C311 C84 1.125 . S
C316 C42 1.187 . S
C327 C0 1.139 . S
C332 C98 1.206 . S
C343 C14 1.136 . S
C348 C56 1.203 . S
C359 C70 1.203 . S
C364 C28 1.136 . S
