# Generated by pormake.
# Topology dft, (4)-cn, num edge types: 1
# Building blocks:
#     Node 0, Type 0, BuildingBlock: NAHDIM_clean_sbu_0, # of connection points: 4
#     Node 1, Type 0, BuildingBlock: NAHDIM_clean_sbu_0, # of connection points: 4
#     Node 2, Type 0, BuildingBlock: NAHDIM_clean_sbu_0, # of connection points: 4
#     Node 3, Type 0, BuildingBlock: NAHDIM_clean_sbu_0, # of connection points: 4
#     Node 4, Type 0, BuildingBlock: NAHDIM_clean_sbu_0, # of connection points: 4
#     Node 5, Type 0, BuildingBlock: NAHDIM_clean_sbu_0, # of connection points: 4
#     Node 6, Type 0, BuildingBlock: NAHDIM_clean_sbu_0, # of connection points: 4
#     Node 7, Type 0, BuildingBlock: NAHDIM_clean_sbu_0, # of connection points: 4
#     Edge 8, Type (0, 0), BuildingBlock: CIFDUS_clean_linker_0, # of connection points: 2
#     Edge 9, Type (0, 0), BuildingBlock: CIFDUS_clean_linker_0, # of connection points: 2
#     Edge 10, Type (0, 0), BuildingBlock: CIFDUS_clean_linker_0, # of connection points: 2
#     Edge 11, Type (0, 0), BuildingBlock: CIFDUS_clean_linker_0, # of connection points: 2
#     Edge 12, Type (0, 0), BuildingBlock: CIFDUS_clean_linker_0, # of connection points: 2
#     Edge 13, Type (0, 0), BuildingBlock: CIFDUS_clean_linker_0, # of connection points: 2
#     Edge 14, Type (0, 0), BuildingBlock: CIFDUS_clean_linker_0, # of connection points: 2
#     Edge 15, Type (0, 0), BuildingBlock: CIFDUS_clean_linker_0, # of connection points: 2
#     Edge 16, Type (0, 0), BuildingBlock: CIFDUS_clean_linker_0, # of connection points: 2
#     Edge 17, Type (0, 0), BuildingBlock: CIFDUS_clean_linker_0, # of connection points: 2
#     Edge 18, Type (0, 0), BuildingBlock: CIFDUS_clean_linker_0, # of connection points: 2
#     Edge 19, Type (0, 0), BuildingBlock: CIFDUS_clean_linker_0, # of connection points: 2
#     Edge 20, Type (0, 0), BuildingBlock: CIFDUS_clean_linker_0, # of connection points: 2
#     Edge 21, Type (0, 0), BuildingBlock: CIFDUS_clean_linker_0, # of connection points: 2
#     Edge 22, Type (0, 0), BuildingBlock: CIFDUS_clean_linker_0, # of connection points: 2
#     Edge 23, Type (0, 0), BuildingBlock: CIFDUS_clean_linker_0, # of connection points: 2
# Relax obj value: 0.140
# Max RMSD: 0.138
# Mean RMSD: 0.138
data_MOF--net-dft--node1-NAHDIM_clean_sbu_0--edge1-CIFDUS_clean_linker_0
_symmetry_space_group_name_H-M    P1
_symmetry_Int_Tables_number       1
_symmetry_cell_setting            triclinic
loop_
_symmetry_equiv_pos_as_xyz
'x, y, z'
_cell_length_a     30.996849
_cell_length_b     30.853833
_cell_length_c     33.884592
_cell_angle_alpha  89.976508
_cell_angle_beta   90.147841
_cell_angle_gamma 90.263679
loop_
_atom_site_label
_atom_site_type_symbol
_atom_site_fract_x
_atom_site_fract_y
_atom_site_fract_z
_atom_type_partial_charge
C0 C 0.3777 0.04411 0.22315 0.0
O1 O 0.35993 0.08211 0.21699 0.0
O2 O 0.26547 0.06784 0.23271 0.0
Zn3 Zn 0.29194 0.01594 0.20636 0.0
O4 O 0.28945 0.0212 0.14719 0.0
C5 C 0.2234 0.95443 0.205 0.0
O6 O 0.21133 0.97939 0.17559 0.0
O7 O 0.35421 0.0103 0.22154 0.0
C8 C 0.30256 0.98946 0.12665 0.0
O9 O 0.31693 0.95472 0.14477 0.0
C10 C 0.25088 0.10009 0.21363 0.0
O11 O 0.25418 0.10068 0.17499 0.0
O12 O 0.25824 0.96324 0.22322 0.0
C13 C 0.0111 0.36739 0.73256 0.0
O14 O -0.00686 0.34477 0.76102 0.0
O15 O 0.96392 0.25645 0.7031 0.0
Zn16 Zn 0.01846 0.28614 0.68548 0.0
O17 O 0.02128 0.28409 0.62633 0.0
C18 C 0.08339 0.22107 0.69004 0.0
O19 O 0.0661 0.21004 0.65604 0.0
O20 O 0.02258 0.34875 0.7009 0.0
C21 C -0.00637 0.30519 0.60648 0.0
O22 O 0.96379 0.32708 0.62527 0.0
C23 C 0.92774 0.27301 0.71191 0.0
O24 O 0.9227 0.31522 0.7104 0.0
O25 O 0.06853 0.25359 0.70843 0.0
C26 C 0.62692 0.98613 0.21108 0.0
O27 O 0.64431 0.94836 0.20323 0.0
O28 O 0.73855 0.96132 0.21217 0.0
Zn29 Zn 0.71138 0.01585 0.19034 0.0
O30 O 0.71094 0.01492 0.13096 0.0
C31 C 0.78316 0.06325 0.22257 0.0
O32 O 0.79896 0.02395 0.22541 0.0
O33 O 0.65001 0.02014 0.20848 0.0
C34 C 0.74409 0.02507 0.11093 0.0
O35 O 0.77981 0.03601 0.12943 0.0
C36 C 0.75286 0.93094 0.19059 0.0
O37 O 0.74816 0.93342 0.15213 0.0
O38 O 0.7454 0.06826 0.20861 0.0
C39 C 0.05118 0.62008 0.70299 0.0
O40 O 0.07993 0.63959 0.68066 0.0
O41 O 0.06422 0.73886 0.73096 0.0
Zn42 Zn 0.01874 0.70493 0.7019 0.0
O43 O 0.02612 0.70884 0.64301 0.0
C44 C 0.92907 0.73122 0.69374 0.0
O45 O 0.93069 0.71043 0.65995 0.0
O46 O 0.02061 0.64225 0.71741 0.0
C47 C 0.0226 0.74412 0.62396 0.0
O48 O 0.01578 0.78029 0.64338 0.0
C49 C 0.10075 0.75042 0.71757 0.0
O50 O 0.112 0.7387 0.68179 0.0
O51 O 0.96193 0.73135 0.71625 0.0
C52 C 0.39602 -0.0044 0.788 0.0
O53 O 0.38296 0.95654 0.77801 0.0
O54 O 0.28976 0.94941 0.79294 0.0
Zn55 Zn 0.30798 0.00675 0.8161 0.0
O56 O 0.302 0.00487 0.8752 0.0
C57 C 0.26207 0.0504 0.75597 0.0
O58 O 0.281 0.02027 0.73489 0.0
O59 O 0.36945 0.02166 0.80359 0.0
C60 C 0.2915 0.03796 0.89526 0.0
O61 O 0.28352 0.07461 0.87694 0.0
C62 C 0.25537 0.93266 0.80656 0.0
O63 O 0.23564 0.95213 0.83584 0.0
O64 O 0.26925 0.05201 0.79287 0.0
C65 C 0.02228 0.40247 0.2766 0.0
O66 O 0.06084 0.3863 0.28282 0.0
O67 O 0.05528 0.293 0.27136 0.0
Zn68 Zn 0.00044 0.31592 0.29536 0.0
O69 O 0.00337 0.31564 0.35456 0.0
C70 C 0.95941 0.23647 0.29258 0.0
O71 O -0.00599 0.22921 0.31403 0.0
O72 O 0.98969 0.3774 0.27839 0.0
C73 C 0.97173 0.33206 0.37294 0.0
O74 O 0.93978 0.34884 0.35256 0.0
C75 C 0.08478 0.27532 0.29181 0.0
O76 O 0.081 0.27415 0.3304 0.0
O77 O 0.95291 0.27462 0.27971 0.0
C78 C 0.65178 0.01623 0.78934 0.0
O79 O 0.66377 0.05214 0.80714 0.0
O80 O 0.77164 0.04314 0.77203 0.0
Zn81 Zn 0.74068 -0.00425 0.80152 0.0
O82 O 0.74037 0.00872 0.85954 0.0
C83 C 0.76952 0.91651 0.76421 0.0
O84 O 0.7411 0.92671 0.73695 0.0
O85 O 0.67978 0.98727 0.78263 0.0
C86 C 0.77553 0.01736 0.87729 0.0
O87 O 0.8115 0.01906 0.85689 0.0
C88 C 0.77081 0.08295 0.78164 0.0
O89 O 0.74685 0.09525 0.81148 0.0
O90 O 0.77406 0.94095 0.7941 0.0
C91 C 0.96025 0.65139 0.29594 0.0
O92 O 0.92274 0.66868 0.3044 0.0
O93 O 0.93671 0.76513 0.29522 0.0
Zn94 Zn 0.99169 0.73726 0.31426 0.0
O95 O -0.00271 0.74069 0.37337 0.0
C96 C 0.03833 0.78295 0.25461 0.0
O97 O 0.00391 0.77262 0.23387 0.0
O98 O -0.00598 0.67482 0.29765 0.0
C99 C 0.00298 0.77677 0.39078 0.0
O100 O 0.00424 0.81255 0.36977 0.0
C101 C 0.90651 0.77868 0.31723 0.0
O102 O 0.9092 0.77308 0.35558 0.0
O103 O 0.04109 0.77015 0.29016 0.0
H104 H 0.27859 0.05749 0.08039 0.0
H105 H 0.32484 0.92583 0.07482 0.0
H106 H 0.32454 0.92899 0.00292 0.0
H107 H 0.3122 0.96925 0.94168 0.0
H108 H 0.26691 0.10124 0.9469 0.0
H109 H 0.26569 0.09769 0.01889 0.0
C110 C 0.28854 0.02945 0.06346 0.0
C111 C 0.30177 0.99151 0.08302 0.0
C112 C 0.28848 0.03151 0.02205 0.0
C113 C 0.31458 0.95549 0.06059 0.0
C114 C 0.31441 0.95723 0.01943 0.0
C115 C 0.30193 -0.00276 0.9585 0.0
C116 C 0.28971 0.03546 0.93886 0.0
C117 C 0.30156 -0.0049 -0.00013 0.0
C118 C 0.27655 0.07142 0.96121 0.0
C119 C 0.27586 0.06944 0.00241 0.0
H120 H 0.93816 0.34478 0.55603 0.0
H121 H 0.05359 0.26703 0.55892 0.0
H122 H 0.05732 0.26897 0.48698 0.0
H123 H 0.02783 0.29273 0.42327 0.0
H124 H 0.91194 0.36982 0.42058 0.0
H125 H 0.90851 0.36816 0.49246 0.0
C126 C 0.96415 0.32823 0.54097 0.0
C127 C -0.00446 0.30585 0.56287 0.0
C128 C 0.96608 0.3294 0.49962 0.0
C129 C 0.02895 0.2845 0.54281 0.0
C130 C 0.03116 0.28562 0.50166 0.0
C131 C 0.00188 0.30927 0.4384 0.0
C132 C 0.97025 0.33142 0.41655 0.0
C133 C -7e-05 0.30801 0.47977 0.0
C134 C 0.93673 0.35251 0.43663 0.0
C135 C 0.93471 0.35158 0.47777 0.0
H136 H 0.70871 0.00717 0.92826 0.0
H137 H 0.84415 0.04005 0.92377 0.0
H138 H 0.84615 0.04624 0.99559 0.0
H139 H 0.80992 0.04044 0.05974 0.0
H140 H 0.67474 0.00629 0.06403 0.0
H141 H 0.67228 0.00248 0.99217 0.0
C142 C 0.73865 0.01591 0.94293 0.0
C143 C 0.77623 0.02305 0.92063 0.0
C144 C 0.73969 0.01902 0.98423 0.0
C145 C 0.81475 0.03427 0.94019 0.0
C146 C 0.81595 0.03779 0.98128 0.0
C147 C 0.77988 0.03227 0.04498 0.0
C148 C 0.74262 0.02359 0.0673 0.0
C149 C 0.7787 0.02991 0.00361 0.0
C150 C 0.70396 0.01304 0.04763 0.0
C151 C 0.70249 0.01087 0.00651 0.0
H152 H 0.01458 0.709 0.44077 0.0
H153 H 0.00207 0.84825 0.43841 0.0
H154 H 0.00834 0.85068 0.51028 0.0
H155 H 0.01564 0.813 0.57394 0.0
H156 H 0.02909 0.67374 0.57568 0.0
H157 H 0.02446 0.67173 0.50392 0.0
C158 C 0.01321 0.73991 0.45594 0.0
C159 C 0.00761 0.77835 0.43424 0.0
C160 C 0.01709 0.74111 0.49719 0.0
C161 C 0.00632 0.81815 0.45438 0.0
C162 C 0.00987 0.81958 0.4955 0.0
C163 C 0.01778 0.78223 0.55863 0.0
C164 C 0.02252 0.7436 0.58026 0.0
C165 C 0.01506 0.78123 0.51723 0.0
C166 C 0.02539 0.70402 0.55986 0.0
C167 C 0.02265 0.70278 0.51877 0.0
H168 H 0.42509 0.97024 0.22637 0.0
H169 H 0.43676 0.10973 0.22879 0.0
H170 H 0.51524 0.1039 0.22834 0.0
H171 H 0.58021 0.05949 0.22211 0.0
H172 H 0.56845 0.92006 0.21772 0.0
H173 H 0.49031 0.92567 0.22439 0.0
C174 C 0.44476 -0.00062 0.22725 0.0
C175 C 0.42504 0.04036 0.22728 0.0
C176 C 0.48986 -0.00416 0.22638 0.0
C177 C 0.45107 0.07777 0.2285 0.0
C178 C 0.49597 0.07449 0.22819 0.0
C179 C 0.56063 0.03028 0.22299 0.0
C180 C 0.58016 0.98944 0.21905 0.0
C181 C 0.51567 0.03373 0.2263 0.0
C182 C 0.55427 0.95194 0.22043 0.0
C183 C 0.50955 0.9551 0.2242 0.0
H184 H 0.06677 0.41747 0.69175 0.0
H185 H 0.96779 0.42354 0.78081 0.0
H186 H 0.97281 0.50284 0.78102 0.0
H187 H 0.00233 0.57039 0.75252 0.0
H188 H 0.10234 0.56285 0.66427 0.0
H189 H 0.10001 0.48403 0.66732 0.0
C190 C 0.04641 0.43611 0.71138 0.0
C191 C 0.0166 0.4148 0.73589 0.0
C192 C 0.04957 0.48138 0.71138 0.0
C193 C 0.99096 0.43928 0.76162 0.0
C194 C -0.00629 0.48458 0.76162 0.0
C195 C 0.02381 0.55147 0.73418 0.0
C196 C 0.05214 0.5725 0.70791 0.0
C197 C 0.02242 0.50599 0.73612 0.0
C198 C 0.08011 0.54756 0.68465 0.0
C199 C 0.07876 0.50244 0.68628 0.0
H200 H 0.58456 0.07063 0.80131 0.0
H201 H 0.61528 0.94247 0.75905 0.0
H202 H 0.53857 0.9258 0.7521 0.0
H203 H 0.46284 0.94572 0.76287 0.0
H204 H 0.43265 0.07361 0.80629 0.0
H205 H 0.50908 0.09225 0.80763 0.0
C206 C 0.57455 0.03917 0.79024 0.0
C207 C 0.60563 0.00773 0.78113 0.0
C208 C 0.53043 0.02962 0.78671 0.0
C209 C 0.59203 0.96723 0.76651 0.0
C210 C 0.54815 0.95761 0.7626 0.0
C211 C 0.47293 0.97781 0.77226 0.0
C212 C 0.44204 0.00801 0.78485 0.0
C213 C 0.51706 0.98826 0.77337 0.0
C214 C 0.45571 0.04956 0.79672 0.0
C215 C 0.49946 0.06029 0.79755 0.0
H216 H 0.94734 0.44818 0.27933 0.0
H217 H 0.08512 0.46342 0.26633 0.0
H218 H 0.07761 0.54201 0.26847 0.0
H219 H 0.03285 0.60604 0.27913 0.0
H220 H 0.89528 0.59113 0.29399 0.0
H221 H 0.90184 0.51282 0.28576 0.0
C222 C 0.97566 0.46869 0.27641 0.0
C223 C 0.01676 0.4499 0.27296 0.0
C224 C 0.97123 0.51393 0.27833 0.0
C225 C 0.05312 0.47699 0.26928 0.0
C226 C 0.04889 0.52197 0.27057 0.0
C227 C 0.0042 0.58576 0.28027 0.0
C228 C 0.96369 0.60444 0.28755 0.0
C229 C 0.00824 0.54074 0.27594 0.0
C230 C 0.92692 0.57762 0.28866 0.0
C231 C 0.93063 0.53279 0.28399 0.0
H232 H 0.14229 0.22025 0.32548 0.0
H233 H 0.10476 0.27503 0.21333 0.0
H234 H 0.15572 0.22791 0.17947 0.0
H235 H 0.20622 0.16695 0.18119 0.0
H236 H 0.24158 0.11036 0.29319 0.0
H237 H 0.19637 0.16261 0.32756 0.0
C238 C 0.14564 0.22234 0.29368 0.0
C239 C 0.11948 0.25088 0.27198 0.0
C240 C 0.17437 0.19455 0.2743 0.0
C241 C 0.12429 0.25313 0.23077 0.0
C242 C 0.15337 0.22613 0.21134 0.0
C243 C 0.20443 0.16631 0.21314 0.0
C244 C 0.22695 0.13451 0.23451 0.0
C245 C 0.17783 0.19602 0.23273 0.0
C246 C 0.22433 0.13427 0.27595 0.0
C247 C 0.19845 0.16413 0.29567 0.0
H248 H 0.91915 0.18735 0.69744 0.0
H249 H 0.85653 0.29446 0.75525 0.0
H250 H 0.80093 0.24526 0.7807 0.0
H251 H 0.77265 0.17096 0.78939 0.0
H252 H 0.83526 0.06477 0.72982 0.0
H253 H 0.88816 0.11462 0.70199 0.0
C254 C 0.89325 0.19999 0.71551 0.0
C255 C 0.89219 0.24435 0.72485 0.0
C256 C 0.86145 0.17168 0.72977 0.0
C257 C 0.85807 0.26038 0.74772 0.0
C258 C 0.82637 0.23226 0.76237 0.0
C259 C 0.79769 0.15879 0.7701 0.0
C260 C 0.80018 0.11412 0.76204 0.0
C261 C 0.8281 0.18772 0.75402 0.0
C262 C 0.83258 0.09894 0.73665 0.0
C263 C 0.86299 0.12741 0.72077 0.0
H264 H 0.88607 0.78716 0.23966 0.0
H265 H 0.84755 0.8285 0.356 0.0
H266 H 0.79443 0.87741 0.32702 0.0
H267 H 0.76289 0.91236 0.26859 0.0
H268 H 0.80132 0.87055 0.15232 0.0
H269 H 0.85026 0.81767 0.18143 0.0
C270 C 0.86581 0.80659 0.25872 0.0
C271 C 0.87111 0.80452 0.29992 0.0
C272 C 0.83545 0.83472 0.24188 0.0
C273 C 0.84424 0.82954 0.32419 0.0
C274 C 0.81394 0.85765 0.30764 0.0
C275 C 0.78168 0.89142 0.2496 0.0
C276 C 0.77876 0.89576 0.20834 0.0
C277 C 0.80989 0.86112 0.26652 0.0
C278 C 0.80301 0.86805 0.18417 0.0
C279 C 0.83114 0.83785 0.20078 0.0
H280 H 0.17817 0.78632 0.69683 0.0
H281 H 0.08513 0.78132 0.79145 0.0
H282 H 0.12647 0.83503 0.82829 0.0
H283 H 0.18607 0.88689 0.83194 0.0
H284 H 0.27922 0.89313 0.73763 0.0
H285 H 0.24102 0.83516 0.70267 0.0
C286 C 0.16714 0.79669 0.72566 0.0
C287 C 0.12835 0.78005 0.7411 0.0
C288 C 0.19099 0.82793 0.74674 0.0
C289 C 0.11469 0.79372 0.77864 0.0
C290 C 0.13829 0.82452 0.79979 0.0
C291 C 0.19828 0.87538 0.80388 0.0
C292 C 0.23521 0.89459 0.78729 0.0
C293 C 0.17602 0.84239 0.78383 0.0
C294 C 0.25078 0.87897 0.75106 0.0
C295 C 0.22887 0.84592 0.73096 0.0
H296 H 0.77275 0.86072 0.70188 0.0
H297 H 0.83149 0.88793 0.81499 0.0
H298 H 0.88365 0.83036 0.80441 0.0
H299 H 0.91594 0.7762 0.76129 0.0
H300 H 0.85879 0.74935 0.64753 0.0
H301 H 0.80232 0.80248 0.66044 0.0
C302 C 0.79671 0.8538 0.72437 0.0
C303 C 0.79844 0.87895 0.75898 0.0
C304 C 0.82698 0.8208 0.71798 0.0
C305 C 0.82957 0.86935 0.78792 0.0
C306 C 0.85948 0.83641 0.78192 0.0
C307 C 0.89092 0.7816 0.73942 0.0
C308 C 0.89187 0.75912 0.70335 0.0
C309 C 0.85899 0.81253 0.74677 0.0
C310 C 0.85894 0.7663 0.67551 0.0
C311 C 0.82672 0.79682 0.6828 0.0
H312 H 0.15299 0.92201 0.16737 0.0
H313 H 0.23099 0.90553 0.27198 0.0
H314 H 0.18165 0.84936 0.29568 0.0
H315 H 0.11433 0.80779 0.28832 0.0
H316 H 0.03668 0.8243 0.18344 0.0
H317 H 0.08816 0.87741 0.15816 0.0
C318 C 0.15934 0.90602 0.19528 0.0
C319 C 0.1954 0.91824 0.21802 0.0
C320 C 0.13087 0.87381 0.20874 0.0
C321 C 0.2034 0.89684 0.25392 0.0
C322 C 0.17515 0.86477 0.26755 0.0
C323 C 0.10879 0.82278 0.25981 0.0
C324 C 0.0715 0.81231 0.23798 0.0
C325 C 0.13847 0.85343 0.24545 0.0
C326 C 0.06502 0.83181 0.20094 0.0
C327 C 0.0944 0.8623 0.18647 0.0
H328 H 0.12715 0.15552 0.65522 0.0
H329 H 0.11818 0.22763 0.76403 0.0
H330 H 0.17351 0.18184 0.79375 0.0
H331 H 0.22269 0.11985 0.7895 0.0
H332 H 0.23194 0.04836 0.68033 0.0
H333 H 0.17831 0.09557 0.65011 0.0
C334 C 0.13735 0.16133 0.6854 0.0
C335 C 0.11837 0.19477 0.70742 0.0
C336 C 0.16918 0.13496 0.70229 0.0
C337 C 0.13223 0.20206 0.74641 0.0
C338 C 0.16382 0.17585 0.76347 0.0
C339 C 0.21309 0.11468 0.75905 0.0
C340 C 0.23115 0.08048 0.7373 0.0
C341 C 0.18224 0.14197 0.74179 0.0
C342 C 0.21855 0.07441 0.69779 0.0
C343 C 0.1878 0.10134 0.68047 0.0
H344 H 0.88069 0.24004 0.256 0.0
H345 H 0.97212 0.15106 0.30754 0.0
H346 H 0.9254 0.0902 0.29096 0.0
H347 H 0.85957 0.06178 0.26111 0.0
H348 H 0.76678 0.14949 0.21012 0.0
H349 H 0.81295 0.21123 0.2274 0.0
C350 C 0.89031 0.20733 0.26361 0.0
C351 C 0.92992 0.20019 0.28288 0.0
C352 C 0.86309 0.17221 0.25414 0.0
C353 C 0.94182 0.1576 0.29274 0.0
C354 C 0.91515 0.12266 0.28324 0.0
C355 C 0.84932 0.09438 0.25378 0.0
C356 C 0.80989 0.10098 0.23422 0.0
C357 C 0.87586 0.12957 0.26384 0.0
C358 C 0.79701 0.14351 0.22522 0.0
C359 C 0.82344 0.17882 0.23501 0.0
loop_
_geom_bond_atom_site_label_1
_geom_bond_atom_site_label_2
_geom_bond_distance
_geom_bond_site_symmetry_2
_ccdc_geom_bond_type
C0 O1 1.160 . S
C0 O7 1.185 . S
O1 C0 1.160 . S
O2 Zn3 1.899 . S
O2 C10 1.284 . S
Zn3 O2 1.899 . S
Zn3 O4 2.032 . S
Zn3 O7 2.086 . S
Zn3 O12 1.977 1_545 S
O4 Zn3 2.032 . S
O4 C8 1.278 . S
C5 O6 1.203 . S
C5 O12 1.267 . S
O6 C5 1.203 . S
O7 C0 1.185 . S
O7 Zn3 2.086 . S
C8 O4 1.278 . S
C8 O9 1.211 1_545 S
O9 C8 1.211 1_565 S
C10 O2 1.284 . S
C10 O11 1.273 . S
O11 C10 1.273 . S
O12 Zn3 1.977 1_565 S
O12 C5 1.267 . S
C13 O14 1.160 1_455 S
C13 O20 1.185 . S
O14 C13 1.160 1_655 S
O15 Zn16 1.899 1_655 S
O15 C23 1.284 . S
Zn16 O15 1.899 1_455 S
Zn16 O17 2.032 . S
Zn16 O20 2.086 . S
Zn16 O25 1.977 . S
O17 Zn16 2.032 . S
O17 C21 1.278 . S
C18 O19 1.203 . S
C18 O25 1.267 . S
O19 C18 1.203 . S
O20 C13 1.185 . S
O20 Zn16 2.086 . S
C21 O17 1.278 . S
C21 O22 1.211 . S
O22 C21 1.211 . S
C23 O15 1.284 . S
C23 O24 1.273 . S
O24 C23 1.273 . S
O25 Zn16 1.977 . S
O25 C18 1.267 . S
C26 O27 1.160 1_545 S
C26 O33 1.185 . S
O27 C26 1.160 1_565 S
O28 Zn29 1.899 1_565 S
O28 C36 1.284 . S
Zn29 O28 1.899 1_545 S
Zn29 O30 2.032 . S
Zn29 O33 2.086 . S
Zn29 O38 1.977 . S
O30 Zn29 2.032 . S
O30 C34 1.278 . S
C31 O32 1.203 . S
C31 O38 1.267 . S
O32 C31 1.203 . S
O33 C26 1.185 . S
O33 Zn29 2.086 . S
C34 O30 1.278 . S
C34 O35 1.211 . S
O35 C34 1.211 . S
C36 O28 1.284 . S
C36 O37 1.273 . S
O37 C36 1.273 . S
O38 Zn29 1.977 . S
O38 C31 1.267 . S
C39 O40 1.160 . S
C39 O46 1.185 . S
O40 C39 1.160 . S
O41 Zn42 1.899 . S
O41 C49 1.284 . S
Zn42 O41 1.899 . S
Zn42 O43 2.032 . S
Zn42 O46 2.086 . S
Zn42 O51 1.977 1_455 S
O43 Zn42 2.032 . S
O43 C47 1.278 . S
C44 O45 1.203 . S
C44 O51 1.267 . S
O45 C44 1.203 . S
O46 C39 1.185 . S
O46 Zn42 2.086 . S
C47 O43 1.278 . S
C47 O48 1.211 1_455 S
O48 C47 1.211 1_655 S
C49 O41 1.284 . S
C49 O50 1.273 . S
O50 C49 1.273 . S
O51 Zn42 1.977 1_655 S
O51 C44 1.267 . S
C52 O53 1.160 1_545 S
C52 O59 1.185 . S
O53 C52 1.160 1_565 S
O54 Zn55 1.899 1_565 S
O54 C62 1.284 . S
Zn55 O54 1.899 1_545 S
Zn55 O56 2.032 . S
Zn55 O59 2.086 . S
Zn55 O64 1.977 . S
O56 Zn55 2.032 . S
O56 C60 1.278 . S
C57 O58 1.203 . S
C57 O64 1.267 . S
O58 C57 1.203 . S
O59 C52 1.185 . S
O59 Zn55 2.086 . S
C60 O56 1.278 . S
C60 O61 1.211 . S
O61 C60 1.211 . S
C62 O54 1.284 . S
C62 O63 1.273 . S
O63 C62 1.273 . S
O64 Zn55 1.977 . S
O64 C57 1.267 . S
C65 O66 1.160 . S
C65 O72 1.185 . S
O66 C65 1.160 . S
O67 Zn68 1.899 . S
O67 C75 1.284 . S
Zn68 O67 1.899 . S
Zn68 O69 2.032 . S
Zn68 O72 2.086 . S
Zn68 O77 1.977 1_455 S
O69 Zn68 2.032 . S
O69 C73 1.278 . S
C70 O71 1.203 . S
C70 O77 1.267 . S
O71 C70 1.203 . S
O72 C65 1.185 . S
O72 Zn68 2.086 . S
C73 O69 1.278 . S
C73 O74 1.211 1_455 S
O74 C73 1.211 1_655 S
C75 O67 1.284 . S
C75 O76 1.273 . S
O76 C75 1.273 . S
O77 Zn68 1.977 1_655 S
O77 C70 1.267 . S
C78 O79 1.160 . S
C78 O85 1.185 . S
O79 C78 1.160 . S
O80 Zn81 1.899 . S
O80 C88 1.284 . S
Zn81 O80 1.899 . S
Zn81 O82 2.032 . S
Zn81 O85 2.086 . S
Zn81 O90 1.977 1_545 S
O82 Zn81 2.032 . S
O82 C86 1.278 . S
C83 O84 1.203 . S
C83 O90 1.267 . S
O84 C83 1.203 . S
O85 C78 1.185 . S
O85 Zn81 2.086 . S
C86 O82 1.278 . S
C86 O87 1.211 1_545 S
O87 C86 1.211 1_565 S
C88 O80 1.284 . S
C88 O89 1.273 . S
O89 C88 1.273 . S
O90 Zn81 1.977 1_565 S
O90 C83 1.267 . S
C91 O92 1.160 1_455 S
C91 O98 1.185 . S
O92 C91 1.160 1_655 S
O93 Zn94 1.899 1_655 S
O93 C101 1.284 . S
Zn94 O93 1.899 1_455 S
Zn94 O95 2.032 . S
Zn94 O98 2.086 . S
Zn94 O103 1.977 . S
O95 Zn94 2.032 . S
O95 C99 1.278 . S
C96 O97 1.203 . S
C96 O103 1.267 . S
O97 C96 1.203 . S
O98 C91 1.185 . S
O98 Zn94 2.086 . S
C99 O95 1.278 . S
C99 O100 1.211 . S
O100 C99 1.211 . S
C101 O93 1.284 . S
C101 O102 1.273 . S
O102 C101 1.273 . S
O103 Zn94 1.977 . S
O103 C96 1.267 . S
H104 C110 0.930 . S
H105 C113 0.930 . S
H106 C114 0.930 . S
H107 C115 0.930 . S
H108 C118 0.930 . S
H109 C119 0.930 . S
C110 H104 0.930 . S
C110 C111 1.355 . S
C110 C112 1.415 . S
C111 C110 1.355 . S
C111 C113 1.419 1_545 S
C112 C110 1.415 . S
C112 C117 1.425 1_544 S
C112 C119 1.409 1_554 S
C113 H105 0.930 . S
C113 C111 1.419 1_565 S
C113 C114 1.362 . S
C114 H106 0.930 . S
C114 C113 1.362 . S
C114 C117 1.409 1_554 S
C115 H107 0.930 . S
C115 C116 1.355 1_565 S
C115 C117 1.415 . S
C116 C115 1.355 1_545 S
C116 C118 1.419 . S
C117 C112 1.425 1_566 S
C117 C114 1.409 1_556 S
C117 C115 1.415 . S
C118 H108 0.930 . S
C118 C116 1.419 . S
C118 C119 1.362 . S
C119 H109 0.930 . S
C119 C112 1.409 1_556 S
C119 C118 1.362 . S
H120 C126 0.930 . S
H121 C129 0.930 . S
H122 C130 0.930 . S
H123 C131 0.930 . S
H124 C134 0.930 . S
H125 C135 0.930 . S
C126 H120 0.930 . S
C126 C127 1.355 . S
C126 C128 1.415 . S
C127 C126 1.355 . S
C127 C129 1.419 . S
C128 C126 1.415 . S
C128 C133 1.425 . S
C128 C135 1.409 . S
C129 H121 0.930 . S
C129 C127 1.419 . S
C129 C130 1.362 . S
C130 H122 0.930 . S
C130 C129 1.362 . S
C130 C133 1.409 . S
C131 H123 0.930 . S
C131 C132 1.355 . S
C131 C133 1.415 . S
C132 C131 1.355 . S
C132 C134 1.419 . S
C133 C128 1.425 . S
C133 C130 1.409 . S
C133 C131 1.415 . S
C134 H124 0.930 . S
C134 C132 1.419 . S
C134 C135 1.362 . S
C135 H125 0.930 . S
C135 C128 1.409 . S
C135 C134 1.362 . S
H136 C142 0.930 . S
H137 C145 0.930 . S
H138 C146 0.930 . S
H139 C147 0.930 . S
H140 C150 0.930 . S
H141 C151 0.930 . S
C142 H136 0.930 . S
C142 C143 1.355 . S
C142 C144 1.415 . S
C143 C142 1.355 . S
C143 C145 1.419 1_545 S
C144 C142 1.415 . S
C144 C149 1.425 1_546 S
C144 C151 1.409 1_556 S
C145 H137 0.930 . S
C145 C143 1.419 1_565 S
C145 C146 1.362 . S
C146 H138 0.930 . S
C146 C145 1.362 . S
C146 C149 1.409 1_556 S
C147 H139 0.930 . S
C147 C148 1.355 1_565 S
C147 C149 1.415 . S
C148 C147 1.355 1_545 S
C148 C150 1.419 . S
C149 C144 1.425 1_564 S
C149 C146 1.409 1_554 S
C149 C147 1.415 . S
C150 H140 0.930 . S
C150 C148 1.419 . S
C150 C151 1.362 . S
C151 H141 0.930 . S
C151 C144 1.409 1_554 S
C151 C150 1.362 . S
H152 C158 0.930 1_655 S
H153 C161 0.930 . S
H154 C162 0.930 . S
H155 C163 0.930 . S
H156 C166 0.930 . S
H157 C167 0.930 1_655 S
C158 H152 0.930 1_455 S
C158 C159 1.355 . S
C158 C160 1.415 . S
C159 C158 1.355 . S
C159 C161 1.419 . S
C160 C158 1.415 . S
C160 C165 1.425 . S
C160 C167 1.409 . S
C161 H153 0.930 . S
C161 C159 1.419 . S
C161 C162 1.362 . S
C162 H154 0.930 . S
C162 C161 1.362 . S
C162 C165 1.409 . S
C163 H155 0.930 . S
C163 C164 1.355 . S
C163 C165 1.415 . S
C164 C163 1.355 . S
C164 C166 1.419 . S
C165 C160 1.425 . S
C165 C162 1.409 . S
C165 C163 1.415 . S
C166 H156 0.930 . S
C166 C164 1.419 . S
C166 C167 1.362 . S
C167 H157 0.930 1_455 S
C167 C160 1.409 . S
C167 C166 1.362 . S
H168 C174 0.930 . S
H169 C177 0.930 . S
H170 C178 0.930 . S
H171 C179 0.930 . S
H172 C182 0.930 . S
H173 C183 0.930 . S
C174 H168 0.930 . S
C174 C175 1.355 . S
C174 C176 1.415 . S
C175 C174 1.355 . S
C175 C177 1.419 . S
C176 C174 1.415 . S
C176 C181 1.425 . S
C176 C183 1.409 . S
C177 H169 0.930 . S
C177 C175 1.419 . S
C177 C178 1.362 . S
C178 H170 0.930 . S
C178 C177 1.362 . S
C178 C181 1.409 . S
C179 H171 0.930 . S
C179 C180 1.355 . S
C179 C181 1.415 . S
C180 C179 1.355 . S
C180 C182 1.419 . S
C181 C176 1.425 . S
C181 C178 1.409 . S
C181 C179 1.415 . S
C182 H172 0.930 . S
C182 C180 1.419 . S
C182 C183 1.362 . S
C183 H173 0.930 . S
C183 C176 1.409 . S
C183 C182 1.362 . S
H184 C190 0.930 . S
H185 C193 0.930 . S
H186 C194 0.930 . S
H187 C195 0.930 . S
H188 C198 0.930 . S
H189 C199 0.930 . S
C190 H184 0.930 . S
C190 C191 1.355 . S
C190 C192 1.415 . S
C191 C190 1.355 . S
C191 C193 1.419 . S
C192 C190 1.415 . S
C192 C197 1.425 . S
C192 C199 1.409 . S
C193 H185 0.930 . S
C193 C191 1.419 . S
C193 C194 1.362 . S
C194 H186 0.930 . S
C194 C193 1.362 . S
C194 C197 1.409 . S
C195 H187 0.930 . S
C195 C196 1.355 . S
C195 C197 1.415 . S
C196 C195 1.355 . S
C196 C198 1.419 . S
C197 C192 1.425 . S
C197 C194 1.409 . S
C197 C195 1.415 . S
C198 H188 0.930 . S
C198 C196 1.419 . S
C198 C199 1.362 . S
C199 H189 0.930 . S
C199 C192 1.409 . S
C199 C198 1.362 . S
H200 C206 0.930 . S
H201 C209 0.930 . S
H202 C210 0.930 . S
H203 C211 0.930 . S
H204 C214 0.930 . S
H205 C215 0.930 . S
C206 H200 0.930 . S
C206 C207 1.355 . S
C206 C208 1.415 . S
C207 C206 1.355 . S
C207 C209 1.419 1_545 S
C208 C206 1.415 . S
C208 C213 1.425 1_545 S
C208 C215 1.409 . S
C209 H201 0.930 . S
C209 C207 1.419 1_565 S
C209 C210 1.362 . S
C210 H202 0.930 . S
C210 C209 1.362 . S
C210 C213 1.409 . S
C211 H203 0.930 . S
C211 C212 1.355 1_565 S
C211 C213 1.415 . S
C212 C211 1.355 1_545 S
C212 C214 1.419 . S
C213 C208 1.425 1_565 S
C213 C210 1.409 . S
C213 C211 1.415 . S
C214 H204 0.930 . S
C214 C212 1.419 . S
C214 C215 1.362 . S
C215 H205 0.930 . S
C215 C208 1.409 . S
C215 C214 1.362 . S
H216 C222 0.930 . S
H217 C225 0.930 . S
H218 C226 0.930 . S
H219 C227 0.930 . S
H220 C230 0.930 . S
H221 C231 0.930 . S
C222 H216 0.930 . S
C222 C223 1.355 1_655 S
C222 C224 1.415 . S
C223 C222 1.355 1_455 S
C223 C225 1.419 . S
C224 C222 1.415 . S
C224 C229 1.425 1_655 S
C224 C231 1.409 . S
C225 H217 0.930 . S
C225 C223 1.419 . S
C225 C226 1.362 . S
C226 H218 0.930 . S
C226 C225 1.362 . S
C226 C229 1.409 . S
C227 H219 0.930 . S
C227 C228 1.355 . S
C227 C229 1.415 . S
C228 C227 1.355 . S
C228 C230 1.419 1_455 S
C229 C224 1.425 1_455 S
C229 C226 1.409 . S
C229 C227 1.415 . S
C230 H220 0.930 . S
C230 C228 1.419 1_655 S
C230 C231 1.362 . S
C231 H221 0.930 . S
C231 C224 1.409 . S
C231 C230 1.362 . S
H232 C238 0.930 . S
H233 C241 0.930 . S
H234 C242 0.930 . S
H235 C243 0.930 . S
H236 C246 0.930 . S
H237 C247 0.930 . S
C238 H232 0.930 . S
C238 C239 1.355 . S
C238 C240 1.415 . S
C239 C238 1.355 . S
C239 C241 1.419 . S
C240 C238 1.415 . S
C240 C245 1.425 . S
C240 C247 1.409 . S
C241 H233 0.930 . S
C241 C239 1.419 . S
C241 C242 1.362 . S
C242 H234 0.930 . S
C242 C241 1.362 . S
C242 C245 1.409 . S
C243 H235 0.930 . S
C243 C244 1.355 . S
C243 C245 1.415 . S
C244 C243 1.355 . S
C244 C246 1.419 . S
C245 C240 1.425 . S
C245 C242 1.409 . S
C245 C243 1.415 . S
C246 H236 0.930 . S
C246 C244 1.419 . S
C246 C247 1.362 . S
C247 H237 0.930 . S
C247 C240 1.409 . S
C247 C246 1.362 . S
H248 C254 0.930 . S
H249 C257 0.930 . S
H250 C258 0.930 . S
H251 C259 0.930 . S
H252 C262 0.930 . S
H253 C263 0.930 . S
C254 H248 0.930 . S
C254 C255 1.355 . S
C254 C256 1.415 . S
C255 C254 1.355 . S
C255 C257 1.419 . S
C256 C254 1.415 . S
C256 C261 1.425 . S
C256 C263 1.409 . S
C257 H249 0.930 . S
C257 C255 1.419 . S
C257 C258 1.362 . S
C258 H250 0.930 . S
C258 C257 1.362 . S
C258 C261 1.409 . S
C259 H251 0.930 . S
C259 C260 1.355 . S
C259 C261 1.415 . S
C260 C259 1.355 . S
C260 C262 1.419 . S
C261 C256 1.425 . S
C261 C258 1.409 . S
C261 C259 1.415 . S
C262 H252 0.930 . S
C262 C260 1.419 . S
C262 C263 1.362 . S
C263 H253 0.930 . S
C263 C256 1.409 . S
C263 C262 1.362 . S
H264 C270 0.930 . S
H265 C273 0.930 . S
H266 C274 0.930 . S
H267 C275 0.930 . S
H268 C278 0.930 . S
H269 C279 0.930 . S
C270 H264 0.930 . S
C270 C271 1.355 . S
C270 C272 1.415 . S
C271 C270 1.355 . S
C271 C273 1.419 . S
C272 C270 1.415 . S
C272 C277 1.425 . S
C272 C279 1.409 . S
C273 H265 0.930 . S
C273 C271 1.419 . S
C273 C274 1.362 . S
C274 H266 0.930 . S
C274 C273 1.362 . S
C274 C277 1.409 . S
C275 H267 0.930 . S
C275 C276 1.355 . S
C275 C277 1.415 . S
C276 C275 1.355 . S
C276 C278 1.419 . S
C277 C272 1.425 . S
C277 C274 1.409 . S
C277 C275 1.415 . S
C278 H268 0.930 . S
C278 C276 1.419 . S
C278 C279 1.362 . S
C279 H269 0.930 . S
C279 C272 1.409 . S
C279 C278 1.362 . S
H280 C286 0.930 . S
H281 C289 0.930 . S
H282 C290 0.930 . S
H283 C291 0.930 . S
H284 C294 0.930 . S
H285 C295 0.930 . S
C286 H280 0.930 . S
C286 C287 1.355 . S
C286 C288 1.415 . S
C287 C286 1.355 . S
C287 C289 1.419 . S
C288 C286 1.415 . S
C288 C293 1.425 . S
C288 C295 1.409 . S
C289 H281 0.930 . S
C289 C287 1.419 . S
C289 C290 1.362 . S
C290 H282 0.930 . S
C290 C289 1.362 . S
C290 C293 1.409 . S
C291 H283 0.930 . S
C291 C292 1.355 . S
C291 C293 1.415 . S
C292 C291 1.355 . S
C292 C294 1.419 . S
C293 C288 1.425 . S
C293 C290 1.409 . S
C293 C291 1.415 . S
C294 H284 0.930 . S
C294 C292 1.419 . S
C294 C295 1.362 . S
C295 H285 0.930 . S
C295 C288 1.409 . S
C295 C294 1.362 . S
H296 C302 0.930 . S
H297 C305 0.930 . S
H298 C306 0.930 . S
H299 C307 0.930 . S
H300 C310 0.930 . S
H301 C311 0.930 . S
C302 H296 0.930 . S
C302 C303 1.355 . S
C302 C304 1.415 . S
C303 C302 1.355 . S
C303 C305 1.419 . S
C304 C302 1.415 . S
C304 C309 1.425 . S
C304 C311 1.409 . S
C305 H297 0.930 . S
C305 C303 1.419 . S
C305 C306 1.362 . S
C306 H298 0.930 . S
C306 C305 1.362 . S
C306 C309 1.409 . S
C307 H299 0.930 . S
C307 C308 1.355 . S
C307 C309 1.415 . S
C308 C307 1.355 . S
C308 C310 1.419 . S
C309 C304 1.425 . S
C309 C306 1.409 . S
C309 C307 1.415 . S
C310 H300 0.930 . S
C310 C308 1.419 . S
C310 C311 1.362 . S
C311 H301 0.930 . S
C311 C304 1.409 . S
C311 C310 1.362 . S
H312 C318 0.930 . S
H313 C321 0.930 . S
H314 C322 0.930 . S
H315 C323 0.930 . S
H316 C326 0.930 . S
H317 C327 0.930 . S
C318 H312 0.930 . S
C318 C319 1.355 . S
C318 C320 1.415 . S
C319 C318 1.355 . S
C319 C321 1.419 . S
C320 C318 1.415 . S
C320 C325 1.425 . S
C320 C327 1.409 . S
C321 H313 0.930 . S
C321 C319 1.419 . S
C321 C322 1.362 . S
C322 H314 0.930 . S
C322 C321 1.362 . S
C322 C325 1.409 . S
C323 H315 0.930 . S
C323 C324 1.355 . S
C323 C325 1.415 . S
C324 C323 1.355 . S
C324 C326 1.419 . S
C325 C320 1.425 . S
C325 C322 1.409 . S
C325 C323 1.415 . S
C326 H316 0.930 . S
C326 C324 1.419 . S
C326 C327 1.362 . S
C327 H317 0.930 . S
C327 C320 1.409 . S
C327 C326 1.362 . S
H328 C334 0.930 . S
H329 C337 0.930 . S
H330 C338 0.930 . S
H331 C339 0.930 . S
H332 C342 0.930 . S
H333 C343 0.930 . S
C334 H328 0.930 . S
C334 C335 1.355 . S
C334 C336 1.415 . S
C335 C334 1.355 . S
C335 C337 1.419 . S
C336 C334 1.415 . S
C336 C341 1.425 . S
C336 C343 1.409 . S
C337 H329 0.930 . S
C337 C335 1.419 . S
C337 C338 1.362 . S
C338 H330 0.930 . S
C338 C337 1.362 . S
C338 C341 1.409 . S
C339 H331 0.930 . S
C339 C340 1.355 . S
C339 C341 1.415 . S
C340 C339 1.355 . S
C340 C342 1.419 . S
C341 C336 1.425 . S
C341 C338 1.409 . S
C341 C339 1.415 . S
C342 H332 0.930 . S
C342 C340 1.419 . S
C342 C343 1.362 . S
C343 H333 0.930 . S
C343 C336 1.409 . S
C343 C342 1.362 . S
H344 C350 0.930 . S
H345 C353 0.930 . S
H346 C354 0.930 . S
H347 C355 0.930 . S
H348 C358 0.930 . S
H349 C359 0.930 . S
C350 H344 0.930 . S
C350 C351 1.355 . S
C350 C352 1.415 . S
C351 C350 1.355 . S
C351 C353 1.419 . S
C352 C350 1.415 . S
C352 C357 1.425 . S
C352 C359 1.409 . S
C353 H345 0.930 . S
C353 C351 1.419 . S
C353 C354 1.362 . S
C354 H346 0.930 . S
C354 C353 1.362 . S
C354 C357 1.409 . S
C355 H347 0.930 . S
C355 C356 1.355 . S
C355 C357 1.415 . S
C356 C355 1.355 . S
C356 C358 1.419 . S
C357 C352 1.425 . S
C357 C354 1.409 . S
C357 C355 1.415 . S
C358 H348 0.930 . S
C358 C356 1.419 . S
C358 C359 1.362 . S
C359 H349 0.930 . S
C359 C352 1.409 . S
C359 C358 1.362 . S
C111 C8 1.492 . S
C116 C60 1.499 . S
C127 C21 1.526 . S
C132 C73 1.495 . S
C143 C86 1.490 . S
C148 C34 1.514 . S
C159 C99 1.499 . S
C164 C47 1.530 . S
C175 C0 1.183 . S
C180 C26 1.180 . S
C191 C13 1.183 . S
C196 C39 1.179 . S
C207 C78 1.189 . S
C212 C52 1.191 . S
C223 C65 1.157 . S
C228 C91 1.157 . S
C239 C75 1.315 . S
C244 C10 1.346 . S
C255 C23 1.319 . S
C260 C88 1.288 . S
C271 C101 1.299 . S
C276 C36 1.282 . S
C287 C49 1.335 . S
C292 C62 1.354 . S
C303 C83 1.259 . S
C308 C44 1.197 . S
C319 C5 1.277 . S
C324 C96 1.197 . S
C335 C18 1.272 . S
C340 C57 1.212 . S
C351 C70 1.194 . S
C356 C31 1.265 . S
