# Generated by pormake.
# Topology dft, (4)-cn, num edge types: 1
# Building blocks:
#     Node 0, Type 0, BuildingBlock: GALJAG_clean_sbu_0, # of connection points: 4
#     Node 1, Type 0, BuildingBlock: GALJAG_clean_sbu_0, # of connection points: 4
#     Node 2, Type 0, BuildingBlock: GALJAG_clean_sbu_0, # of connection points: 4
#     Node 3, Type 0, BuildingBlock: GALJAG_clean_sbu_0, # of connection points: 4
#     Node 4, Type 0, BuildingBlock: GALJAG_clean_sbu_0, # of connection points: 4
#     Node 5, Type 0, BuildingBlock: GALJAG_clean_sbu_0, # of connection points: 4
#     Node 6, Type 0, BuildingBlock: GALJAG_clean_sbu_0, # of connection points: 4
#     Node 7, Type 0, BuildingBlock: GALJAG_clean_sbu_0, # of connection points: 4
#     Edge 8, Type (0, 0), BuildingBlock: CIFDUS_clean_linker_0, # of connection points: 2
#     Edge 9, Type (0, 0), BuildingBlock: CIFDUS_clean_linker_0, # of connection points: 2
#     Edge 10, Type (0, 0), BuildingBlock: CIFDUS_clean_linker_0, # of connection points: 2
#     Edge 11, Type (0, 0), BuildingBlock: CIFDUS_clean_linker_0, # of connection points: 2
#     Edge 12, Type (0, 0), BuildingBlock: CIFDUS_clean_linker_0, # of connection points: 2
#     Edge 13, Type (0, 0), BuildingBlock: CIFDUS_clean_linker_0, # of connection points: 2
#     Edge 14, Type (0, 0), BuildingBlock: CIFDUS_clean_linker_0, # of connection points: 2
#     Edge 15, Type (0, 0), BuildingBlock: CIFDUS_clean_linker_0, # of connection points: 2
#     Edge 16, Type (0, 0), BuildingBlock: CIFDUS_clean_linker_0, # of connection points: 2
#     Edge 17, Type (0, 0), BuildingBlock: CIFDUS_clean_linker_0, # of connection points: 2
#     Edge 18, Type (0, 0), BuildingBlock: CIFDUS_clean_linker_0, # of connection points: 2
#     Edge 19, Type (0, 0), BuildingBlock: CIFDUS_clean_linker_0, # of connection points: 2
#     Edge 20, Type (0, 0), BuildingBlock: CIFDUS_clean_linker_0, # of connection points: 2
#     Edge 21, Type (0, 0), BuildingBlock: CIFDUS_clean_linker_0, # of connection points: 2
#     Edge 22, Type (0, 0), BuildingBlock: CIFDUS_clean_linker_0, # of connection points: 2
#     Edge 23, Type (0, 0), BuildingBlock: CIFDUS_clean_linker_0, # of connection points: 2
# Relax obj value: 0.096
# Max RMSD: 0.146
# Mean RMSD: 0.146
data_MOF--net-dft--node1-GALJAG_clean_sbu_0--edge1-CIFDUS_clean_linker_0
_symmetry_space_group_name_H-M    P1
_symmetry_Int_Tables_number       1
_symmetry_cell_setting            triclinic
loop_
_symmetry_equiv_pos_as_xyz
'x, y, z'
_cell_length_a     29.471659
_cell_length_b     29.446469
_cell_length_c     39.438453
_cell_angle_alpha  89.892241
_cell_angle_beta   90.165164
_cell_angle_gamma 90.108694
loop_
_atom_site_label
_atom_site_type_symbol
_atom_site_fract_x
_atom_site_fract_y
_atom_site_fract_z
_atom_type_partial_charge
In0 In 0.31227 0.03973 0.166 0.0
O1 O 0.37696 0.07242 0.18669 0.0
O2 O 0.38277 0.00813 0.16283 0.0
C3 C 0.26353 0.10535 0.19757 0.0
C4 C 0.29942 0.0482 0.09845 0.0
C5 C 0.2801 0.95922 0.18831 0.0
O6 O 0.28222 0.11159 0.16927 0.0
O7 O 0.26978 0.06649 0.20995 0.0
O8 O 0.27176 0.97433 0.15899 0.0
O9 O 0.30582 0.98411 0.20596 0.0
C10 C 0.4027 0.04058 0.17751 0.0
O11 O 0.27017 0.03062 0.11776 0.0
O12 O 0.33497 0.06172 0.11323 0.0
In13 In 0.01342 0.31852 0.66706 0.0
O14 O 0.97786 0.38714 0.67138 0.0
O15 O 0.04981 0.3864 0.67288 0.0
C16 C 0.9504 0.2714 0.70224 0.0
C17 C 0.00642 0.3133 0.59889 0.0
C18 C 0.08652 0.2764 0.69377 0.0
O19 O 0.96761 0.30793 0.71286 0.0
O20 O 0.96399 0.25917 0.67335 0.0
O21 O 0.07276 0.26893 0.66398 0.0
O22 O 0.06378 0.3054 0.70988 0.0
C23 C 0.01408 0.40979 0.6737 0.0
O24 O 0.04399 0.31546 0.61423 0.0
O25 O 0.97208 0.31337 0.61798 0.0
In26 In 0.76311 0.03168 0.16859 0.0
O27 O 0.69792 0.99033 0.16299 0.0
O28 O 0.69246 0.05672 0.18327 0.0
C29 C 0.81556 0.96677 0.1973 0.0
C30 C 0.77361 0.04024 0.10058 0.0
C31 C 0.79305 0.10191 0.20625 0.0
O32 O 0.7731 0.96267 0.19455 0.0
O33 O 0.83157 0.00274 0.18473 0.0
O34 O 0.80075 0.09874 0.17485 0.0
O35 O 0.7692 0.07019 0.21847 0.0
C36 C 0.67227 0.0209 0.17434 0.0
O37 O 0.75797 0.07147 0.11891 0.0
O38 O 0.78482 0.00487 0.11657 0.0
In39 In 0.06039 0.76772 0.66951 0.0
O40 O 0.02529 0.79382 0.62163 0.0
O41 O 0.08648 0.75649 0.61591 0.0
C42 C 0.99662 0.80059 0.71171 0.0
C43 C 0.0594 0.67649 0.67647 0.0
C44 C 0.12953 0.82195 0.68908 0.0
O45 O 0.98989 0.7965 0.68023 0.0
O46 O 0.03494 0.78724 0.72181 0.0
O47 O 0.1219 0.78387 0.70263 0.0
O48 O 0.10326 0.83197 0.6649 0.0
C49 C 0.05424 0.7773 0.60162 0.0
O50 O 0.09571 0.69913 0.67528 0.0
O51 O 0.02373 0.69988 0.67453 0.0
In52 In 0.31378 0.06659 0.82959 0.0
O53 O 0.33803 0.09768 0.87914 0.0
O54 O 0.28518 0.04846 0.88165 0.0
C55 C 0.26163 0.13409 0.80441 0.0
C56 C 0.40405 0.06268 0.81902 0.0
C57 C 0.27741 0.99296 0.799 0.0
O58 O 0.25525 0.11709 0.83337 0.0
O59 O 0.29493 0.1179 0.78855 0.0
O60 O 0.28893 0.02826 0.7831 0.0
O61 O 0.28461 0.99442 0.83055 0.0
C62 C 0.31142 0.07492 0.89759 0.0
O63 O 0.38058 0.02821 0.82632 0.0
O64 O 0.38184 0.09909 0.81633 0.0
In65 In 0.0286 0.31445 0.32886 0.0
O66 O 0.0702 0.37744 0.31626 0.0
O67 O 0.00012 0.38661 0.32647 0.0
C68 C 0.09156 0.25692 0.30413 0.0
C69 C 0.03209 0.3127 0.39736 0.0
C70 C 0.95736 0.28006 0.29392 0.0
O71 O 0.08552 0.29625 0.29226 0.0
O72 O 0.06628 0.24683 0.32879 0.0
O73 O 0.96468 0.27069 0.32467 0.0
O74 O 0.98508 0.30785 0.28117 0.0
C75 C 0.03757 0.4048 0.31893 0.0
O76 O 0.9951 0.31325 0.38116 0.0
O77 O 0.06709 0.313 0.37902 0.0
In78 In 0.76153 0.01661 0.83122 0.0
O79 O 0.77477 0.97971 0.88113 0.0
O80 O 0.76738 0.05136 0.883 0.0
C81 C 0.80752 0.94832 0.80202 0.0
C82 C 0.67006 0.01716 0.82687 0.0
C83 C 0.79904 0.08301 0.79306 0.0
O84 O 0.82452 0.97301 0.82493 0.0
O85 O 0.7669 0.9574 0.79442 0.0
O86 O 0.77377 0.05247 0.78101 0.0
O87 O 0.80491 0.08081 0.82476 0.0
C88 C 0.7741 0.01497 0.89921 0.0
O89 O 0.69369 0.05275 0.82483 0.0
O90 O 0.69251 0.98124 0.83127 0.0
In91 In 0.05564 0.76392 0.33131 0.0
O92 O 0.09174 0.74614 0.3805 0.0
O93 O 0.03086 0.78415 0.38432 0.0
C94 C 0.13103 0.79485 0.30014 0.0
C95 C 0.03706 0.67519 0.32121 0.0
C96 C 0.99514 0.82256 0.30395 0.0
O97 O 0.12493 0.79787 0.33168 0.0
O98 O 0.09955 0.77492 0.28423 0.0
O99 O 0.99229 0.78019 0.29979 0.0
O100 O 0.02749 0.83512 0.32272 0.0
C101 C 0.0635 0.76531 0.39961 0.0
O102 O 0.00885 0.70232 0.33402 0.0
O103 O 0.07432 0.69303 0.31276 0.0
H104 H 0.35184 0.09447 0.05384 0.0
H105 H 0.23307 0.00902 0.05998 0.0
H106 H 0.22524 0.0109 0.99824 0.0
H107 H 0.25407 0.03443 0.94236 0.0
H108 H 0.37216 0.12098 0.93663 0.0
H109 H 0.37815 0.12129 0.99836 0.0
C110 C 0.32414 0.07641 0.04166 0.0
C111 C 0.29327 0.0514 0.06136 0.0
C112 C 0.31976 0.0778 0.00623 0.0
C113 C 0.25732 0.02847 0.04531 0.0
C114 C 0.25287 0.02947 0.01002 0.0
C115 C 0.28093 0.05356 0.95466 0.0
C116 C 0.31276 0.07742 0.93497 0.0
C117 C 0.28416 0.05366 0.99021 0.0
C118 C 0.34724 0.10228 0.95123 0.0
C119 C 0.35078 0.10241 0.98652 0.0
H120 H 0.07581 0.31238 0.55399 0.0
H121 H 0.92966 0.311 0.55986 0.0
H122 H 0.92455 0.31035 0.49793 0.0
H123 H 0.96181 0.31116 0.44204 0.0
H124 H 0.10806 0.31258 0.43671 0.0
H125 H 0.11289 0.31222 0.49848 0.0
C126 C 0.04282 0.31184 0.54173 0.0
C127 C 0.00318 0.31178 0.56148 0.0
C128 C 0.04016 0.31155 0.5062 0.0
C129 C 0.96069 0.31104 0.54522 0.0
C130 C 0.95775 0.31072 0.50981 0.0
C131 C 0.99471 0.31134 0.45443 0.0
C132 C 0.0345 0.31197 0.43481 0.0
C133 C -0.00273 0.31113 0.49004 0.0
C134 C 0.0769 0.31214 0.45121 0.0
C135 C 0.07972 0.31194 0.48655 0.0
H136 H 0.76349 0.08423 0.94402 0.0
H137 H 0.79615 0.9417 0.93807 0.0
H138 H 0.80142 0.9375 -0.0002 0.0
H139 H 0.79362 0.9735 0.05562 0.0
H140 H 0.75843 0.11539 0.06174 0.0
H141 H 0.75755 0.12073 -0.0001 0.0
C142 C 0.77204 0.05234 0.95625 0.0
C143 C 0.77932 0.01333 0.9365 0.0
C144 C 0.77448 0.05002 0.99181 0.0
C145 C 0.79025 0.97221 0.9527 0.0
C146 C 0.79327 0.96976 0.98801 0.0
C147 C 0.78613 0.00567 0.04341 0.0
C148 C 0.77607 0.04397 0.06322 0.0
C149 C 0.78501 0.00833 0.00784 0.0
C150 C 0.76622 0.08537 0.04704 0.0
C151 C 0.76565 0.08845 0.01168 0.0
H152 H 0.00749 0.80365 0.44636 0.0
H153 H 0.13094 0.7262 0.43651 0.0
H154 H 0.13943 0.724 0.498 0.0
H155 H 0.11133 0.74279 0.5546 0.0
H156 H 0.9878 0.81981 0.56509 0.0
H157 H 0.9799 0.8236 0.50339 0.0
C158 C 0.03626 0.78639 0.45772 0.0
C159 C 0.06847 0.76506 0.43691 0.0
C160 C 0.04095 0.78516 0.4932 0.0
C161 C 0.10562 0.74286 0.45195 0.0
C162 C 0.11053 0.74156 0.48713 0.0
C163 C 0.08275 0.76054 0.54339 0.0
C164 C 0.05019 0.78093 0.56435 0.0
C165 C 0.07834 0.76242 0.50799 0.0
C166 C 0.01334 0.80381 0.54947 0.0
C167 C 0.00877 0.80595 0.5142 0.0
H168 H 0.46387 0.9761 0.15992 0.0
H169 H 0.45309 0.1089 0.20522 0.0
H170 H 0.53568 0.11375 0.20959 0.0
H171 H 0.61102 0.08168 0.19819 0.0
H172 H 0.6217 0.94902 0.15262 0.0
H173 H 0.53908 0.94261 0.15085 0.0
C174 C 0.4796 0.00598 0.17093 0.0
C175 C 0.45245 0.04217 0.18207 0.0
C176 C 0.52707 0.00862 0.17323 0.0
C177 C 0.47328 0.08061 0.19639 0.0
C178 C 0.52049 0.08345 0.19885 0.0
C179 C 0.59525 0.05126 0.18807 0.0
C180 C 0.6224 0.01598 0.17542 0.0
C181 C 0.54773 0.04788 0.187 0.0
C182 C 0.60152 0.9767 0.16248 0.0
C183 C 0.55429 0.97303 0.1614 0.0
H184 H 0.08795 0.46445 0.67807 0.0
H185 H 0.9416 0.46715 0.67479 0.0
H186 H 0.94273 0.55009 0.67662 0.0
H187 H 0.98538 0.62175 0.67729 0.0
H188 H 0.13175 0.61908 0.67992 0.0
H189 H 0.13054 0.53609 0.68036 0.0
C190 C 0.0563 0.4832 0.6779 0.0
C191 C 0.01476 0.45977 0.67619 0.0
C192 C 0.05723 0.53081 0.6788 0.0
C193 C 0.97402 0.48446 0.67604 0.0
C194 C 0.97464 0.53185 0.67706 0.0
C195 C 0.017 0.603 0.67814 0.0
C196 C 0.05858 0.62645 0.67849 0.0
C197 C 0.01605 0.55537 0.67817 0.0
C198 C 0.09929 0.60175 0.67961 0.0
C199 C 0.09864 0.55433 0.67981 0.0
H200 H 0.61602 0.08955 0.81384 0.0
H201 H 0.61216 0.94565 0.83465 0.0
H202 H 0.52931 0.9467 0.83242 0.0
H203 H 0.45807 0.98897 0.82649 0.0
H204 H 0.46186 0.13294 0.806 0.0
H205 H 0.54476 0.13132 0.80588 0.0
C206 C 0.59703 0.05841 0.8178 0.0
C207 C 0.6201 0.01764 0.82457 0.0
C208 C 0.54947 0.05926 0.81649 0.0
C209 C 0.59512 0.9775 0.82948 0.0
C210 C 0.54778 0.97806 0.82821 0.0
C211 C 0.47705 0.01992 0.82174 0.0
C212 C 0.45394 0.06102 0.81634 0.0
C213 C 0.52462 0.0188 0.82198 0.0
C214 C 0.47892 0.10087 0.81023 0.0
C215 C 0.52629 0.1 0.81025 0.0
H216 H 0.97456 0.47058 0.32916 0.0
H217 H 0.11378 0.45004 0.29936 0.0
H218 H 0.12505 0.53203 0.29525 0.0
H219 H 0.09653 0.60955 0.30289 0.0
H220 H 0.95804 0.63031 0.3344 0.0
H221 H 0.9452 0.5483 0.33481 0.0
C222 C 0.00725 0.48408 0.32155 0.0
C223 C 0.04332 0.45433 0.31471 0.0
C224 C 0.01365 0.53129 0.31959 0.0
C225 C 0.08551 0.47226 0.30489 0.0
C226 C 0.092 0.51914 0.30253 0.0
C227 C 0.06342 0.59613 0.30952 0.0
C228 C 0.02833 0.6259 0.31866 0.0
C229 C 0.05648 0.54897 0.31021 0.0
C230 C 0.98564 0.60805 0.32732 0.0
C231 C 0.97829 0.56117 0.32763 0.0
H232 H 0.14497 0.26953 0.24889 0.0
H233 H 0.11127 0.17157 0.32641 0.0
H234 H 0.16277 0.11661 0.30084 0.0
H235 H 0.21548 0.09556 0.25555 0.0
H236 H 0.24817 0.19269 0.17725 0.0
H237 H 0.19906 0.24892 0.20412 0.0
C238 C 0.14911 0.23624 0.26028 0.0
C239 C 0.12434 0.22461 0.28947 0.0
C240 C 0.17849 0.20466 0.24528 0.0
C241 C 0.12996 0.18133 0.30392 0.0
C242 C 0.15936 0.14987 0.28931 0.0
C243 C 0.21204 0.12912 0.24445 0.0
C244 C 0.23534 0.13997 0.21445 0.0
C245 C 0.1835 0.16105 0.25985 0.0
C246 C 0.23049 0.18352 0.20032 0.0
C247 C 0.20242 0.21566 0.21566 0.0
H248 H 0.89964 0.19937 0.68197 0.0
H249 H 0.93273 0.2805 0.76961 0.0
H250 H 0.88775 0.23007 0.80558 0.0
H251 H 0.84223 0.16045 0.81259 0.0
H252 H 0.80726 0.08091 0.72451 0.0
H253 H 0.84952 0.13318 0.6883 0.0
C254 C 0.89667 0.20618 0.7089 0.0
C255 C 0.91968 0.24336 0.72316 0.0
C256 C 0.87058 0.17719 0.72939 0.0
C257 C 0.91529 0.25205 0.75803 0.0
C258 C 0.88973 0.22314 0.77864 0.0
C259 C 0.84368 0.15479 0.78545 0.0
C260 C 0.82198 0.11675 0.77128 0.0
C261 C 0.86775 0.18523 0.76468 0.0
C262 C 0.82373 0.10998 0.73603 0.0
C263 C 0.84798 0.13978 0.7153 0.0
H264 H 0.91435 0.80527 0.27285 0.0
H265 H 0.00926 0.91298 0.29517 0.0
H266 H 0.96293 0.96657 0.26296 0.0
H267 H 0.89598 0.98279 0.22793 0.0
H268 H 0.79812 0.87693 0.20851 0.0
H269 H 0.84508 0.82253 0.23993 0.0
C270 C 0.92471 0.84053 0.27075 0.0
C271 C 0.96519 0.85515 0.28628 0.0
C272 C 0.89755 0.87136 0.25254 0.0
C273 C 0.97813 0.90095 0.28356 0.0
C274 C 0.95178 0.93158 0.26502 0.0
C275 C 0.88512 0.94772 0.23043 0.0
C276 C 0.84403 0.93363 0.21565 0.0
C277 C 0.9116 0.91711 0.24925 0.0
C278 C 0.82979 0.8884 0.2196 0.0
C279 C 0.85658 0.85736 0.23756 0.0
H280 H 0.17105 0.81881 0.75046 0.0
H281 H 0.16167 0.89866 0.65887 0.0
H282 H 0.20968 0.95732 0.6842 0.0
H283 H 0.24935 0.98836 0.73372 0.0
H284 H 0.25521 0.9107 0.82651 0.0
H285 H 0.2136 0.84859 0.79935 0.0
C286 C 0.18012 0.84874 0.73589 0.0
C287 C 0.16291 0.85447 0.70287 0.0
C288 C 0.20669 0.88286 0.75094 0.0
C289 C 0.17451 0.89357 0.68436 0.0
C290 C 0.20182 0.92715 0.69886 0.0
C291 C 0.24189 0.95766 0.74791 0.0
C292 C 0.25514 0.95414 0.78209 0.0
C293 C 0.21731 0.92256 0.73235 0.0
C294 C 0.24517 0.91425 0.80019 0.0
C295 C 0.2214 0.87876 0.78469 0.0
H296 H 0.88945 0.91422 0.81978 0.0
H297 H 0.7859 0.90675 0.74245 0.0
H298 H 0.83447 0.85782 0.7082 0.0
H299 H 0.90877 0.82221 0.69836 0.0
H300 H 0.01157 0.82876 0.77635 0.0
H301 H 0.96078 0.87271 0.81232 0.0
C302 C 0.87737 0.90146 0.79559 0.0
C303 C 0.83444 0.91437 0.78347 0.0
C304 C 0.90542 0.87341 0.77608 0.0
C305 C 0.81892 0.89729 0.75227 0.0
C306 C 0.84673 0.86948 0.73262 0.0
C307 C 0.91981 0.8329 0.72336 0.0
C308 C 0.96393 0.8227 0.73456 0.0
C309 C 0.8904 0.85811 0.74396 0.0
C310 C 0.97775 0.83632 0.76713 0.0
C311 C 0.9488 0.86157 0.78768 0.0
H312 H 0.28537 0.92684 0.25255 0.0
H313 H 0.22175 0.90195 0.15567 0.0
H314 H 0.17337 0.84385 0.18125 0.0
H315 H 0.14278 0.80728 0.23245 0.0
H316 H 0.20424 0.83516 0.32966 0.0
H317 H 0.26015 0.88445 0.30262 0.0
C318 C 0.26149 0.90812 0.23692 0.0
C319 C 0.25676 0.919 0.20238 0.0
C320 C 0.23309 0.87556 0.25193 0.0
C321 C 0.2258 0.89438 0.1824 0.0
C322 C 0.19801 0.86127 0.19703 0.0
C323 C 0.16895 0.82347 0.2476 0.0
C324 C 0.1691 0.818 0.28301 0.0
C325 C 0.20037 0.85263 0.23197 0.0
C326 C 0.20321 0.83913 0.30236 0.0
C327 C 0.23513 0.86742 0.28693 0.0
H328 H 0.10648 0.26884 0.76056 0.0
H329 H 0.15184 0.22782 0.66135 0.0
H330 H 0.2129 0.18321 0.68701 0.0
H331 H 0.25058 0.15252 0.73771 0.0
H332 H 0.20149 0.18882 0.83693 0.0
H333 H 0.14485 0.23899 0.81127 0.0
C334 C 0.13003 0.25047 0.74459 0.0
C335 C 0.12481 0.25158 0.70916 0.0
C336 C 0.16425 0.22402 0.75953 0.0
C337 C 0.15519 0.22731 0.68871 0.0
C338 C 0.19007 0.20185 0.70336 0.0
C339 C 0.22784 0.1719 0.75369 0.0
C340 C 0.2302 0.16723 0.78911 0.0
C341 C 0.19456 0.1995 0.73874 0.0
C342 C 0.20021 0.19195 0.80957 0.0
C343 C 0.16782 0.22053 0.79492 0.0
H344 H 0.8939 0.21987 0.31592 0.0
H345 H 0.94318 0.28692 0.22583 0.0
H346 H 0.89338 0.24009 0.19072 0.0
H347 H 0.84151 0.17513 0.18525 0.0
H348 H 0.79256 0.10764 0.27524 0.0
H349 H 0.83615 0.15989 0.31074 0.0
C350 C 0.89324 0.22466 0.28864 0.0
C351 C 0.9225 0.25646 0.27347 0.0
C352 C 0.86482 0.19732 0.26857 0.0
C353 C 0.92109 0.26252 0.23813 0.0
C354 C 0.89275 0.23564 0.21801 0.0
C355 C 0.83993 0.17225 0.21265 0.0
C356 C 0.81426 0.1373 0.22759 0.0
C357 C 0.86535 0.20216 0.23289 0.0
C358 C 0.81222 0.13417 0.26311 0.0
C359 C 0.83727 0.16393 0.28344 0.0
loop_
_geom_bond_atom_site_label_1
_geom_bond_atom_site_label_2
_geom_bond_distance
_geom_bond_site_symmetry_2
_ccdc_geom_bond_type
In0 O1 2.294 . S
In0 O2 2.326 1_545 S
In0 O6 2.266 . S
In0 O7 2.326 . S
In0 O8 2.266 1_545 S
In0 O9 2.319 1_545 S
In0 O11 2.294 . S
In0 O12 2.326 . S
O1 In0 2.294 . S
O1 C10 1.240 . S
O2 In0 2.326 1_565 S
O2 C10 1.252 1_565 S
C3 O6 1.252 . S
C3 O7 1.260 . S
C4 O11 1.240 . S
C4 O12 1.252 . S
C5 O8 1.252 . S
C5 O9 1.273 . S
O6 In0 2.266 . S
O6 C3 1.252 . S
O7 In0 2.326 . S
O7 C3 1.260 . S
O8 In0 2.266 1_565 S
O8 C5 1.252 . S
O9 In0 2.319 1_565 S
O9 C5 1.273 . S
C10 O1 1.240 . S
C10 O2 1.252 1_545 S
O11 In0 2.294 . S
O11 C4 1.240 . S
O12 In0 2.326 . S
O12 C4 1.252 . S
In13 O14 2.294 . S
In13 O15 2.326 . S
In13 O19 2.266 1_455 S
In13 O20 2.326 . S
In13 O21 2.266 . S
In13 O22 2.326 . S
In13 O24 2.294 . S
In13 O25 2.326 . S
O14 In13 2.294 . S
O14 C23 1.240 . S
O15 In13 2.326 . S
O15 C23 1.252 . S
C16 O19 1.252 . S
C16 O20 1.260 1_655 S
C17 O24 1.240 . S
C17 O25 1.252 . S
C18 O21 1.252 . S
C18 O22 1.260 . S
O19 In13 2.266 1_655 S
O19 C16 1.252 . S
O20 In13 2.326 . S
O20 C16 1.260 1_455 S
O21 In13 2.266 . S
O21 C18 1.252 . S
O22 In13 2.326 . S
O22 C18 1.260 . S
C23 O14 1.240 . S
C23 O15 1.252 . S
O24 In13 2.294 . S
O24 C17 1.240 . S
O25 In13 2.326 . S
O25 C17 1.252 . S
In26 O27 2.294 . S
In26 O28 2.326 . S
In26 O32 2.266 1_545 S
In26 O33 2.326 . S
In26 O34 2.266 . S
In26 O35 2.326 . S
In26 O37 2.294 . S
In26 O38 2.326 . S
O27 In26 2.294 . S
O27 C36 1.240 . S
O28 In26 2.326 . S
O28 C36 1.252 . S
C29 O32 1.252 . S
C29 O33 1.260 1_565 S
C30 O37 1.240 . S
C30 O38 1.252 . S
C31 O34 1.252 . S
C31 O35 1.260 . S
O32 In26 2.266 1_565 S
O32 C29 1.252 . S
O33 In26 2.326 . S
O33 C29 1.260 1_545 S
O34 In26 2.266 . S
O34 C31 1.252 . S
O35 In26 2.326 . S
O35 C31 1.260 . S
C36 O27 1.240 . S
C36 O28 1.252 . S
O37 In26 2.294 . S
O37 C30 1.240 . S
O38 In26 2.326 . S
O38 C30 1.252 . S
In39 O40 2.294 . S
In39 O41 2.326 . S
In39 O45 2.266 1_455 S
In39 O46 2.319 1_455 S
In39 O47 2.266 . S
In39 O48 2.326 . S
In39 O50 2.294 . S
In39 O51 2.326 1_455 S
O40 In39 2.294 . S
O40 C49 1.240 . S
O41 In39 2.326 . S
O41 C49 1.252 . S
C42 O45 1.252 . S
C42 O46 1.272 . S
C43 O50 1.240 . S
C43 O51 1.252 1_455 S
C44 O47 1.252 . S
C44 O48 1.260 . S
O45 In39 2.266 1_655 S
O45 C42 1.252 . S
O46 In39 2.319 1_655 S
O46 C42 1.272 . S
O47 In39 2.266 . S
O47 C44 1.252 . S
O48 In39 2.326 . S
O48 C44 1.260 . S
C49 O40 1.240 . S
C49 O41 1.252 . S
O50 In39 2.294 . S
O50 C43 1.240 . S
O51 In39 2.326 1_655 S
O51 C43 1.252 1_655 S
In52 O53 2.294 . S
In52 O54 2.326 . S
In52 O58 2.266 . S
In52 O59 2.326 . S
In52 O60 2.266 1_545 S
In52 O61 2.326 . S
In52 O63 2.294 . S
In52 O64 2.326 . S
O53 In52 2.294 . S
O53 C62 1.240 . S
O54 In52 2.326 . S
O54 C62 1.252 . S
C55 O58 1.252 . S
C55 O59 1.260 . S
C56 O63 1.240 . S
C56 O64 1.252 . S
C57 O60 1.252 . S
C57 O61 1.260 1_565 S
O58 In52 2.266 . S
O58 C55 1.252 . S
O59 In52 2.326 . S
O59 C55 1.260 . S
O60 In52 2.266 1_565 S
O60 C57 1.252 . S
O61 In52 2.326 . S
O61 C57 1.260 1_545 S
C62 O53 1.240 . S
C62 O54 1.252 . S
O63 In52 2.294 . S
O63 C56 1.240 . S
O64 In52 2.326 . S
O64 C56 1.252 . S
In65 O66 2.294 . S
In65 O67 2.326 1_455 S
In65 O71 2.266 . S
In65 O72 2.326 . S
In65 O73 2.266 1_455 S
In65 O74 2.319 1_455 S
In65 O76 2.294 . S
In65 O77 2.326 . S
O66 In65 2.294 . S
O66 C75 1.240 . S
O67 In65 2.326 1_655 S
O67 C75 1.252 1_655 S
C68 O71 1.252 . S
C68 O72 1.260 . S
C69 O76 1.240 . S
C69 O77 1.252 . S
C70 O73 1.252 . S
C70 O74 1.273 . S
O71 In65 2.266 . S
O71 C68 1.252 . S
O72 In65 2.326 . S
O72 C68 1.260 . S
O73 In65 2.266 1_655 S
O73 C70 1.252 . S
O74 In65 2.319 1_655 S
O74 C70 1.273 . S
C75 O66 1.240 . S
C75 O67 1.252 1_455 S
O76 In65 2.294 . S
O76 C69 1.240 . S
O77 In65 2.326 . S
O77 C69 1.252 . S
In78 O79 2.294 . S
In78 O80 2.326 . S
In78 O84 2.266 1_545 S
In78 O85 2.319 1_545 S
In78 O86 2.266 . S
In78 O87 2.326 . S
In78 O89 2.294 . S
In78 O90 2.326 1_545 S
O79 In78 2.294 . S
O79 C88 1.240 . S
O80 In78 2.326 . S
O80 C88 1.252 . S
C81 O84 1.252 . S
C81 O85 1.272 . S
C82 O89 1.240 . S
C82 O90 1.252 1_545 S
C83 O86 1.252 . S
C83 O87 1.260 . S
O84 In78 2.266 1_565 S
O84 C81 1.252 . S
O85 In78 2.319 1_565 S
O85 C81 1.272 . S
O86 In78 2.266 . S
O86 C83 1.252 . S
O87 In78 2.326 . S
O87 C83 1.260 . S
C88 O79 1.240 . S
C88 O80 1.252 . S
O89 In78 2.294 . S
O89 C82 1.240 . S
O90 In78 2.326 1_565 S
O90 C82 1.252 1_565 S
In91 O92 2.294 . S
In91 O93 2.326 . S
In91 O97 2.266 . S
In91 O98 2.326 . S
In91 O99 2.266 1_455 S
In91 O100 2.326 . S
In91 O102 2.294 . S
In91 O103 2.326 . S
O92 In91 2.294 . S
O92 C101 1.240 . S
O93 In91 2.326 . S
O93 C101 1.252 . S
C94 O97 1.252 . S
C94 O98 1.260 . S
C95 O102 1.240 . S
C95 O103 1.252 . S
C96 O99 1.252 . S
C96 O100 1.260 1_655 S
O97 In91 2.266 . S
O97 C94 1.252 . S
O98 In91 2.326 . S
O98 C94 1.260 . S
O99 In91 2.266 1_655 S
O99 C96 1.252 . S
O100 In91 2.326 . S
O100 C96 1.260 1_455 S
C101 O92 1.240 . S
C101 O93 1.252 . S
O102 In91 2.294 . S
O102 C95 1.240 . S
O103 In91 2.326 . S
O103 C95 1.252 . S
H104 C110 0.930 . S
H105 C113 0.930 . S
H106 C114 0.922 1_565 S
H107 C115 0.930 . S
H108 C118 0.930 . S
H109 C119 0.930 . S
C110 H104 0.930 . S
C110 C111 1.355 . S
C110 C112 1.415 . S
C111 C110 1.355 . S
C111 C113 1.419 . S
C112 C110 1.415 . S
C112 C117 1.425 1_554 S
C112 C119 1.409 1_554 S
C113 H105 0.930 . S
C113 C111 1.419 . S
C113 C114 1.362 . S
C114 H106 0.922 1_545 S
C114 C113 1.362 . S
C114 C117 1.409 1_554 S
C115 H107 0.930 . S
C115 C116 1.355 . S
C115 C117 1.415 . S
C116 C115 1.355 . S
C116 C118 1.419 . S
C117 C112 1.425 1_556 S
C117 C114 1.409 1_556 S
C117 C115 1.415 . S
C118 H108 0.930 . S
C118 C116 1.419 . S
C118 C119 1.362 . S
C119 H109 0.930 . S
C119 C112 1.409 1_556 S
C119 C118 1.362 . S
H120 C126 0.930 . S
H121 C129 0.930 1_655 S
H122 C130 0.930 . S
H123 C131 0.930 . S
H124 C134 0.930 . S
H125 C135 0.930 . S
C126 H120 0.930 . S
C126 C127 1.355 . S
C126 C128 1.415 . S
C127 C126 1.355 . S
C127 C129 1.419 . S
C128 C126 1.415 . S
C128 C133 1.425 . S
C128 C135 1.409 . S
C129 H121 0.930 1_455 S
C129 C127 1.419 . S
C129 C130 1.362 1_455 S
C130 H122 0.930 . S
C130 C129 1.362 1_655 S
C130 C133 1.409 1_655 S
C131 H123 0.930 . S
C131 C132 1.355 . S
C131 C133 1.415 . S
C132 C131 1.355 . S
C132 C134 1.419 . S
C133 C128 1.425 . S
C133 C130 1.409 1_455 S
C133 C131 1.415 . S
C134 H124 0.930 . S
C134 C132 1.419 . S
C134 C135 1.362 . S
C135 H125 0.930 . S
C135 C128 1.409 . S
C135 C134 1.362 . S
H136 C142 0.930 . S
H137 C145 0.930 1_565 S
H138 C146 0.930 1_565 S
H139 C147 0.929 . S
H140 C150 0.930 . S
H141 C151 0.930 . S
C142 H136 0.930 . S
C142 C143 1.355 . S
C142 C144 1.415 . S
C143 C142 1.355 . S
C143 C145 1.419 . S
C144 C142 1.415 . S
C144 C149 1.425 1_556 S
C144 C151 1.409 1_556 S
C145 H137 0.930 1_545 S
C145 C143 1.419 . S
C145 C146 1.362 . S
C146 H138 0.930 1_545 S
C146 C145 1.362 . S
C146 C149 1.409 1_556 S
C147 H139 0.929 . S
C147 C148 1.355 . S
C147 C149 1.415 . S
C148 C147 1.355 . S
C148 C150 1.419 . S
C149 C144 1.425 1_554 S
C149 C146 1.409 1_554 S
C149 C147 1.415 . S
C150 H140 0.930 . S
C150 C148 1.419 . S
C150 C151 1.362 . S
C151 H141 0.930 . S
C151 C144 1.409 1_554 S
C151 C150 1.362 . S
H152 C158 0.930 1_655 S
H153 C161 0.930 . S
H154 C162 0.930 . S
H155 C163 0.930 . S
H156 C166 0.930 1_655 S
H157 C167 0.930 . S
C158 H152 0.930 1_455 S
C158 C159 1.355 . S
C158 C160 1.415 . S
C159 C158 1.355 . S
C159 C161 1.419 . S
C160 C158 1.415 . S
C160 C165 1.425 . S
C160 C167 1.409 1_455 S
C161 H153 0.930 . S
C161 C159 1.419 . S
C161 C162 1.362 . S
C162 H154 0.930 . S
C162 C161 1.362 . S
C162 C165 1.409 . S
C163 H155 0.930 . S
C163 C164 1.355 . S
C163 C165 1.415 . S
C164 C163 1.355 . S
C164 C166 1.419 . S
C165 C160 1.425 . S
C165 C162 1.409 . S
C165 C163 1.415 . S
C166 H156 0.930 1_455 S
C166 C164 1.419 . S
C166 C167 1.362 1_455 S
C167 H157 0.930 . S
C167 C160 1.409 1_655 S
C167 C166 1.362 1_655 S
H168 C174 0.931 . S
H169 C177 0.930 . S
H170 C178 0.930 . S
H171 C179 0.930 . S
H172 C182 0.930 1_565 S
H173 C183 0.930 . S
C174 H168 0.931 . S
C174 C175 1.354 1_565 S
C174 C176 1.414 1_565 S
C175 C174 1.354 1_545 S
C175 C177 1.419 . S
C176 C174 1.414 1_545 S
C176 C181 1.425 . S
C176 C183 1.409 1_545 S
C177 H169 0.930 . S
C177 C175 1.419 . S
C177 C178 1.362 . S
C178 H170 0.930 . S
C178 C177 1.362 . S
C178 C181 1.409 . S
C179 H171 0.930 . S
C179 C180 1.355 . S
C179 C181 1.415 . S
C180 C179 1.355 . S
C180 C182 1.419 . S
C181 C176 1.425 . S
C181 C178 1.409 . S
C181 C179 1.415 . S
C182 H172 0.930 1_545 S
C182 C180 1.419 . S
C182 C183 1.362 1_545 S
C183 H173 0.930 . S
C183 C176 1.409 1_565 S
C183 C182 1.362 1_565 S
H184 C190 0.930 . S
H185 C193 0.930 1_655 S
H186 C194 0.930 . S
H187 C195 0.943 . S
H188 C198 0.930 . S
H189 C199 0.930 . S
C190 H184 0.930 . S
C190 C191 1.355 . S
C190 C192 1.415 . S
C191 C190 1.355 . S
C191 C193 1.419 . S
C192 C190 1.415 . S
C192 C197 1.425 . S
C192 C199 1.409 . S
C193 H185 0.930 1_455 S
C193 C191 1.419 . S
C193 C194 1.362 1_455 S
C194 H186 0.930 . S
C194 C193 1.362 1_655 S
C194 C197 1.409 1_655 S
C195 H187 0.943 . S
C195 C196 1.347 1_655 S
C195 C197 1.409 1_655 S
C196 C195 1.347 1_455 S
C196 C198 1.419 . S
C197 C192 1.425 . S
C197 C194 1.409 1_455 S
C197 C195 1.409 1_455 S
C198 H188 0.930 . S
C198 C196 1.419 . S
C198 C199 1.362 . S
C199 H189 0.930 . S
C199 C192 1.409 . S
C199 C198 1.362 . S
H200 C206 0.930 . S
H201 C209 0.930 . S
H202 C210 0.930 . S
H203 C211 0.923 1_565 S
H204 C214 0.930 . S
H205 C215 0.930 . S
C206 H200 0.930 . S
C206 C207 1.355 . S
C206 C208 1.415 . S
C207 C206 1.355 . S
C207 C209 1.419 1_545 S
C208 C206 1.415 . S
C208 C213 1.425 . S
C208 C215 1.409 . S
C209 H201 0.930 . S
C209 C207 1.419 1_565 S
C209 C210 1.362 . S
C210 H202 0.930 . S
C210 C209 1.362 . S
C210 C213 1.409 1_565 S
C211 H203 0.923 1_545 S
C211 C212 1.355 . S
C211 C213 1.415 . S
C212 C211 1.355 . S
C212 C214 1.419 . S
C213 C208 1.425 . S
C213 C210 1.409 1_545 S
C213 C211 1.415 . S
C214 H204 0.930 . S
C214 C212 1.419 . S
C214 C215 1.362 . S
C215 H205 0.930 . S
C215 C208 1.409 . S
C215 C214 1.362 . S
H216 C222 0.930 1_655 S
H217 C225 0.930 . S
H218 C226 0.930 . S
H219 C227 0.930 . S
H220 C230 0.930 . S
H221 C231 0.930 1_655 S
C222 H216 0.930 1_455 S
C222 C223 1.355 . S
C222 C224 1.415 . S
C223 C222 1.355 . S
C223 C225 1.419 . S
C224 C222 1.415 . S
C224 C229 1.425 . S
C224 C231 1.409 . S
C225 H217 0.930 . S
C225 C223 1.419 . S
C225 C226 1.362 . S
C226 H218 0.930 . S
C226 C225 1.362 . S
C226 C229 1.409 . S
C227 H219 0.930 . S
C227 C228 1.355 . S
C227 C229 1.415 . S
C228 C227 1.355 . S
C228 C230 1.419 . S
C229 C224 1.425 . S
C229 C226 1.409 . S
C229 C227 1.415 . S
C230 H220 0.930 . S
C230 C228 1.419 . S
C230 C231 1.362 . S
C231 H221 0.930 1_455 S
C231 C224 1.409 . S
C231 C230 1.362 . S
H232 C238 0.930 . S
H233 C241 0.930 . S
H234 C242 0.930 . S
H235 C243 0.930 . S
H236 C246 0.930 . S
H237 C247 0.930 . S
C238 H232 0.930 . S
C238 C239 1.355 . S
C238 C240 1.415 . S
C239 C238 1.355 . S
C239 C241 1.419 . S
C240 C238 1.415 . S
C240 C245 1.425 . S
C240 C247 1.409 . S
C241 H233 0.930 . S
C241 C239 1.419 . S
C241 C242 1.362 . S
C242 H234 0.930 . S
C242 C241 1.362 . S
C242 C245 1.409 . S
C243 H235 0.930 . S
C243 C244 1.355 . S
C243 C245 1.415 . S
C244 C243 1.355 . S
C244 C246 1.419 . S
C245 C240 1.425 . S
C245 C242 1.409 . S
C245 C243 1.415 . S
C246 H236 0.930 . S
C246 C244 1.419 . S
C246 C247 1.362 . S
C247 H237 0.930 . S
C247 C240 1.409 . S
C247 C246 1.362 . S
H248 C254 0.930 . S
H249 C257 0.930 . S
H250 C258 0.930 . S
H251 C259 0.930 . S
H252 C262 0.930 . S
H253 C263 0.930 . S
C254 H248 0.930 . S
C254 C255 1.355 . S
C254 C256 1.415 . S
C255 C254 1.355 . S
C255 C257 1.419 . S
C256 C254 1.415 . S
C256 C261 1.425 . S
C256 C263 1.409 . S
C257 H249 0.930 . S
C257 C255 1.419 . S
C257 C258 1.362 . S
C258 H250 0.930 . S
C258 C257 1.362 . S
C258 C261 1.409 . S
C259 H251 0.930 . S
C259 C260 1.355 . S
C259 C261 1.415 . S
C260 C259 1.355 . S
C260 C262 1.419 . S
C261 C256 1.425 . S
C261 C258 1.409 . S
C261 C259 1.415 . S
C262 H252 0.930 . S
C262 C260 1.419 . S
C262 C263 1.362 . S
C263 H253 0.930 . S
C263 C256 1.409 . S
C263 C262 1.362 . S
H264 C270 0.930 . S
H265 C273 0.930 1_455 S
H266 C274 0.930 . S
H267 C275 0.930 . S
H268 C278 0.930 . S
H269 C279 0.930 . S
C270 H264 0.930 . S
C270 C271 1.355 . S
C270 C272 1.415 . S
C271 C270 1.355 . S
C271 C273 1.419 . S
C272 C270 1.415 . S
C272 C277 1.425 . S
C272 C279 1.409 . S
C273 H265 0.930 1_655 S
C273 C271 1.419 . S
C273 C274 1.362 . S
C274 H266 0.930 . S
C274 C273 1.362 . S
C274 C277 1.409 . S
C275 H267 0.930 . S
C275 C276 1.355 . S
C275 C277 1.415 . S
C276 C275 1.355 . S
C276 C278 1.419 . S
C277 C272 1.425 . S
C277 C274 1.409 . S
C277 C275 1.415 . S
C278 H268 0.930 . S
C278 C276 1.419 . S
C278 C279 1.362 . S
C279 H269 0.930 . S
C279 C272 1.409 . S
C279 C278 1.362 . S
H280 C286 0.930 . S
H281 C289 0.930 . S
H282 C290 0.930 . S
H283 C291 0.930 . S
H284 C294 0.930 . S
H285 C295 0.930 . S
C286 H280 0.930 . S
C286 C287 1.355 . S
C286 C288 1.415 . S
C287 C286 1.355 . S
C287 C289 1.419 . S
C288 C286 1.415 . S
C288 C293 1.425 . S
C288 C295 1.409 . S
C289 H281 0.930 . S
C289 C287 1.419 . S
C289 C290 1.362 . S
C290 H282 0.930 . S
C290 C289 1.362 . S
C290 C293 1.409 . S
C291 H283 0.930 . S
C291 C292 1.355 . S
C291 C293 1.415 . S
C292 C291 1.355 . S
C292 C294 1.419 . S
C293 C288 1.425 . S
C293 C290 1.409 . S
C293 C291 1.415 . S
C294 H284 0.930 . S
C294 C292 1.419 . S
C294 C295 1.362 . S
C295 H285 0.930 . S
C295 C288 1.409 . S
C295 C294 1.362 . S
H296 C302 0.930 . S
H297 C305 0.930 . S
H298 C306 0.930 . S
H299 C307 0.930 . S
H300 C310 0.930 . S
H301 C311 0.930 . S
C302 H296 0.930 . S
C302 C303 1.355 . S
C302 C304 1.415 . S
C303 C302 1.355 . S
C303 C305 1.419 . S
C304 C302 1.415 . S
C304 C309 1.425 . S
C304 C311 1.409 . S
C305 H297 0.930 . S
C305 C303 1.419 . S
C305 C306 1.362 . S
C306 H298 0.930 . S
C306 C305 1.362 . S
C306 C309 1.409 . S
C307 H299 0.930 . S
C307 C308 1.355 . S
C307 C309 1.415 . S
C308 C307 1.355 . S
C308 C310 1.419 . S
C309 C304 1.425 . S
C309 C306 1.409 . S
C309 C307 1.415 . S
C310 H300 0.930 . S
C310 C308 1.419 . S
C310 C311 1.362 . S
C311 H301 0.930 . S
C311 C304 1.409 . S
C311 C310 1.362 . S
H312 C318 0.930 . S
H313 C321 0.930 . S
H314 C322 0.930 . S
H315 C323 0.930 . S
H316 C326 0.930 . S
H317 C327 0.930 . S
C318 H312 0.930 . S
C318 C319 1.355 . S
C318 C320 1.415 . S
C319 C318 1.355 . S
C319 C321 1.419 . S
C320 C318 1.415 . S
C320 C325 1.425 . S
C320 C327 1.409 . S
C321 H313 0.930 . S
C321 C319 1.419 . S
C321 C322 1.362 . S
C322 H314 0.930 . S
C322 C321 1.362 . S
C322 C325 1.409 . S
C323 H315 0.930 . S
C323 C324 1.355 . S
C323 C325 1.415 . S
C324 C323 1.355 . S
C324 C326 1.419 . S
C325 C320 1.425 . S
C325 C322 1.409 . S
C325 C323 1.415 . S
C326 H316 0.930 . S
C326 C324 1.419 . S
C326 C327 1.362 . S
C327 H317 0.930 . S
C327 C320 1.409 . S
C327 C326 1.362 . S
H328 C334 0.930 . S
H329 C337 0.930 . S
H330 C338 0.930 . S
H331 C339 0.930 . S
H332 C342 0.930 . S
H333 C343 0.930 . S
C334 H328 0.930 . S
C334 C335 1.355 . S
C334 C336 1.415 . S
C335 C334 1.355 . S
C335 C337 1.419 . S
C336 C334 1.415 . S
C336 C341 1.425 . S
C336 C343 1.409 . S
C337 H329 0.930 . S
C337 C335 1.419 . S
C337 C338 1.362 . S
C338 H330 0.930 . S
C338 C337 1.362 . S
C338 C341 1.409 . S
C339 H331 0.930 . S
C339 C340 1.355 . S
C339 C341 1.415 . S
C340 C339 1.355 . S
C340 C342 1.419 . S
C341 C336 1.425 . S
C341 C338 1.409 . S
C341 C339 1.415 . S
C342 H332 0.930 . S
C342 C340 1.419 . S
C342 C343 1.362 . S
C343 H333 0.930 . S
C343 C336 1.409 . S
C343 C342 1.362 . S
H344 C350 0.930 . S
H345 C353 0.930 . S
H346 C354 0.930 . S
H347 C355 0.930 . S
H348 C358 0.930 . S
H349 C359 0.930 . S
C350 H344 0.930 . S
C350 C351 1.355 . S
C350 C352 1.415 . S
C351 C350 1.355 . S
C351 C353 1.419 . S
C352 C350 1.415 . S
C352 C357 1.425 . S
C352 C359 1.409 . S
C353 H345 0.930 . S
C353 C351 1.419 . S
C353 C354 1.362 . S
C354 H346 0.930 . S
C354 C353 1.362 . S
C354 C357 1.409 . S
C355 H347 0.930 . S
C355 C356 1.355 . S
C355 C357 1.415 . S
C356 C355 1.355 . S
C356 C358 1.419 . S
C357 C352 1.425 . S
C357 C354 1.409 . S
C357 C355 1.415 . S
C358 H348 0.930 . S
C358 C356 1.419 . S
C358 C359 1.362 . S
C359 H349 0.930 . S
C359 C352 1.409 . S
C359 C358 1.362 . S
C111 C4 1.595 . S
C116 C62 1.597 . S
C127 C17 1.610 . S
C132 C69 1.611 . S
C143 C88 1.587 . S
C148 C30 1.587 . S
C159 C101 1.586 . S
C164 C49 1.586 . S
C175 C10 1.410 . S
C180 C36 1.408 . S
C191 C23 1.411 . S
C196 C43 1.408 . S
C207 C82 1.456 . S
C212 C56 1.460 . S
C223 C75 1.409 . S
C228 C95 1.413 . S
C239 C68 1.617 . S
C244 C3 1.620 . S
C255 C16 1.621 . S
C260 C83 1.617 . S
C271 C96 1.616 . S
C276 C29 1.620 . S
C287 C44 1.636 . S
C292 C57 1.638 . S
C303 C81 1.262 . S
C308 C42 1.283 . S
C319 C5 1.230 . S
C324 C94 1.252 . S
C335 C18 1.265 . S
C340 C55 1.232 . S
C351 C70 1.282 . S
C356 C31 1.255 . S
