# Generated by pormake.
# Topology dft, (4)-cn, num edge types: 1
# Building blocks:
#     Node 0, Type 0, BuildingBlock: GALJAG_clean_sbu_0, # of connection points: 4
#     Node 1, Type 0, BuildingBlock: GALJAG_clean_sbu_0, # of connection points: 4
#     Node 2, Type 0, BuildingBlock: GALJAG_clean_sbu_0, # of connection points: 4
#     Node 3, Type 0, BuildingBlock: GALJAG_clean_sbu_0, # of connection points: 4
#     Node 4, Type 0, BuildingBlock: GALJAG_clean_sbu_0, # of connection points: 4
#     Node 5, Type 0, BuildingBlock: GALJAG_clean_sbu_0, # of connection points: 4
#     Node 6, Type 0, BuildingBlock: GALJAG_clean_sbu_0, # of connection points: 4
#     Node 7, Type 0, BuildingBlock: GALJAG_clean_sbu_0, # of connection points: 4
#     Edge 8, Type (0, 0), None
#     Edge 9, Type (0, 0), None
#     Edge 10, Type (0, 0), None
#     Edge 11, Type (0, 0), None
#     Edge 12, Type (0, 0), None
#     Edge 13, Type (0, 0), None
#     Edge 14, Type (0, 0), None
#     Edge 15, Type (0, 0), None
#     Edge 16, Type (0, 0), None
#     Edge 17, Type (0, 0), None
#     Edge 18, Type (0, 0), None
#     Edge 19, Type (0, 0), None
#     Edge 20, Type (0, 0), None
#     Edge 21, Type (0, 0), None
#     Edge 22, Type (0, 0), None
#     Edge 23, Type (0, 0), None
# Relax obj value: 0.096
# Max RMSD: 0.146
# Mean RMSD: 0.146
data_MOF--net-dft--node1-GALJAG_clean_sbu_0--edge1-none
_symmetry_space_group_name_H-M    P1
_symmetry_Int_Tables_number       1
_symmetry_cell_setting            triclinic
loop_
_symmetry_equiv_pos_as_xyz
'x, y, z'
_cell_length_a     15.145339
_cell_length_b     15.14534
_cell_length_c     20.245241
_cell_angle_alpha  90.003859
_cell_angle_beta   89.99614
_cell_angle_gamma 89.987334
loop_
_atom_site_label
_atom_site_type_symbol
_atom_site_fract_x
_atom_site_fract_y
_atom_site_fract_z
_atom_type_partial_charge
In0 In 0.31164 0.02907 0.16709 0.0
O1 O 0.44164 0.10338 0.18094 0.0
O2 O 0.44632 0.96334 0.1817 0.0
C3 C 0.20545 0.14698 0.22899 0.0
C4 C 0.29554 0.03496 0.03388 0.0
C5 C 0.24273 0.88933 0.22961 0.0
O6 O 0.28718 0.16009 0.22244 0.0
O7 O 0.17719 0.07746 0.20236 0.0
O8 O 0.23274 0.90202 0.16846 0.0
O9 O 0.29139 0.94481 0.25886 0.0
C10 C 0.48839 0.03491 0.18484 0.0
O11 O 0.30598 0.9641 0.06517 0.0
O12 O 0.29167 0.10319 0.06931 0.0
In13 In 0.04415 0.31167 0.66709 0.0
O14 O 0.96988 0.44172 0.68094 0.0
O15 O 0.10992 0.4463 0.68169 0.0
C16 C 0.92625 0.20552 0.729 0.0
C17 C 0.03824 0.29554 0.53389 0.0
C18 C 0.18389 0.24271 0.72963 0.0
O19 O 0.91314 0.28726 0.72247 0.0
O20 O -0.00424 0.17723 0.70235 0.0
O21 O 0.17122 0.23273 0.66847 0.0
O22 O 0.12839 0.29139 0.75887 0.0
C23 C 0.03836 0.48842 0.68483 0.0
O24 O 0.10911 0.30587 0.56518 0.0
O25 O 0.97 0.29178 0.56932 0.0
In26 In 0.76161 0.04417 0.1671 0.0
O27 O 0.63161 0.96985 0.18088 0.0
O28 O 0.62693 0.10989 0.18177 0.0
C29 C 0.8678 0.92626 0.22899 0.0
C30 C 0.77774 0.03831 0.03389 0.0
C31 C 0.83052 0.18391 0.22964 0.0
O32 O 0.78606 0.91316 0.22246 0.0
O33 O 0.89606 -0.00424 0.20235 0.0
O34 O 0.8405 0.17123 0.16849 0.0
O35 O 0.78187 0.12842 0.25889 0.0
C36 C 0.58486 0.03831 0.18482 0.0
O37 O 0.76728 0.10916 0.0652 0.0
O38 O 0.78161 0.97007 0.06931 0.0
In39 In 0.02918 0.76164 0.66708 0.0
O40 O 0.96419 0.7674 0.56518 0.0
O41 O 0.1033 0.78152 0.56929 0.0
C42 C 0.88944 0.8306 0.72962 0.0
C43 C 0.03499 0.58489 0.6848 0.0
C44 C 0.14707 0.8678 0.72898 0.0
O45 O 0.90211 0.84058 0.66847 0.0
O46 O 0.94493 0.78194 0.75887 0.0
O47 O 0.16018 0.78606 0.72245 0.0
O48 O 0.07757 0.89608 0.70233 0.0
C49 C 0.03506 0.77774 0.53387 0.0
O50 O 0.10346 0.63159 0.68088 0.0
O51 O 0.96342 0.62701 0.68173 0.0
In52 In 0.31167 0.04414 0.82845 0.0
O53 O 0.30587 0.1091 0.93037 0.0
O54 O 0.29179 0.96998 0.92622 0.0
C55 C 0.24269 0.18384 0.76592 0.0
C56 C 0.48843 0.03835 0.81072 0.0
C57 C 0.20552 0.92625 0.76653 0.0
O58 O 0.23271 0.17119 0.82708 0.0
O59 O 0.2914 0.12838 0.73667 0.0
O60 O 0.28726 0.91314 0.77306 0.0
O61 O 0.17723 -0.00425 0.79319 0.0
C62 C 0.29556 0.03822 0.96166 0.0
O63 O 0.44172 0.96987 0.8146 0.0
O64 O 0.4463 0.10992 0.81386 0.0
In65 In 0.02908 0.31164 0.32846 0.0
O66 O 0.10338 0.44164 0.31461 0.0
O67 O 0.96334 0.44632 0.31385 0.0
C68 C 0.14698 0.20545 0.26654 0.0
C69 C 0.03498 0.29556 0.46166 0.0
C70 C 0.88938 0.2427 0.26594 0.0
O71 O 0.16009 0.28718 0.27309 0.0
O72 O 0.07748 0.17719 0.29318 0.0
O73 O 0.90204 0.23271 0.32709 0.0
O74 O 0.94482 0.2914 0.23668 0.0
C75 C 0.03492 0.48839 0.31071 0.0
O76 O 0.96412 0.30598 0.43037 0.0
O77 O 0.10321 0.29167 0.42623 0.0
In78 In 0.76165 0.02919 0.82846 0.0
O79 O 0.76741 0.96421 0.93036 0.0
O80 O 0.78152 0.10332 0.92625 0.0
C81 C 0.83063 0.88948 0.76592 0.0
C82 C 0.58489 0.03499 0.81075 0.0
C83 C 0.8678 0.14707 0.76655 0.0
O84 O 0.84061 0.90213 0.82708 0.0
O85 O 0.78192 0.94494 0.73667 0.0
O86 O 0.78606 0.16018 0.77308 0.0
O87 O 0.89609 0.07758 0.79321 0.0
C88 C 0.77772 0.03507 0.96167 0.0
O89 O 0.63159 0.10347 0.81466 0.0
O90 O 0.62702 0.96342 0.81381 0.0
In91 In 0.04416 0.76161 0.32844 0.0
O92 O 0.10915 0.76729 0.43034 0.0
O93 O 0.97005 0.7816 0.42623 0.0
C94 C 0.18386 0.83054 0.26591 0.0
C95 C 0.03831 0.58486 0.31073 0.0
C96 C 0.92626 0.86779 0.26654 0.0
O97 O 0.17121 0.84052 0.32707 0.0
O98 O 0.12841 0.78185 0.23666 0.0
O99 O 0.91316 0.78606 0.27307 0.0
O100 O -0.00425 0.89606 0.29319 0.0
C101 C 0.03829 0.77771 0.46165 0.0
O102 O 0.96984 0.6316 0.31467 0.0
O103 O 0.10989 0.62693 0.31378 0.0
loop_
_geom_bond_atom_site_label_1
_geom_bond_atom_site_label_2
_geom_bond_distance
_geom_bond_site_symmetry_2
_ccdc_geom_bond_type
In0 O1 2.294 . S
In0 O2 2.326 1_545 S
In0 O6 2.266 . S
In0 O7 2.326 . S
In0 O8 2.266 1_545 S
In0 O9 2.326 1_545 S
In0 O11 2.294 1_545 S
In0 O12 2.326 . S
O1 In0 2.294 . S
O1 C10 1.240 . S
O2 In0 2.326 1_565 S
O2 C10 1.252 1_565 S
C3 O6 1.252 . S
C3 O7 1.260 . S
C4 O11 1.240 1_545 S
C4 O12 1.252 . S
C5 O8 1.252 . S
C5 O9 1.260 . S
O6 In0 2.266 . S
O6 C3 1.252 . S
O7 In0 2.326 . S
O7 C3 1.260 . S
O8 In0 2.266 1_565 S
O8 C5 1.252 . S
O9 In0 2.326 1_565 S
O9 C5 1.260 . S
C10 O1 1.240 . S
C10 O2 1.252 1_545 S
O11 In0 2.294 1_565 S
O11 C4 1.240 1_565 S
O12 In0 2.326 . S
O12 C4 1.252 . S
In13 O14 2.294 . S
In13 O15 2.326 . S
In13 O19 2.266 1_455 S
In13 O20 2.326 . S
In13 O21 2.266 . S
In13 O22 2.326 . S
In13 O24 2.294 . S
In13 O25 2.326 1_455 S
O14 In13 2.294 . S
O14 C23 1.240 . S
O15 In13 2.326 . S
O15 C23 1.252 . S
C16 O19 1.252 . S
C16 O20 1.260 1_655 S
C17 O24 1.240 . S
C17 O25 1.252 1_455 S
C18 O21 1.252 . S
C18 O22 1.260 . S
O19 In13 2.266 1_655 S
O19 C16 1.252 . S
O20 In13 2.326 . S
O20 C16 1.260 1_455 S
O21 In13 2.266 . S
O21 C18 1.252 . S
O22 In13 2.326 . S
O22 C18 1.260 . S
C23 O14 1.240 . S
C23 O15 1.252 . S
O24 In13 2.294 . S
O24 C17 1.240 . S
O25 In13 2.326 1_655 S
O25 C17 1.252 1_655 S
In26 O27 2.294 . S
In26 O28 2.326 . S
In26 O32 2.266 1_545 S
In26 O33 2.326 . S
In26 O34 2.266 . S
In26 O35 2.326 . S
In26 O37 2.294 . S
In26 O38 2.326 1_545 S
O27 In26 2.294 . S
O27 C36 1.240 . S
O28 In26 2.326 . S
O28 C36 1.252 . S
C29 O32 1.252 . S
C29 O33 1.260 1_565 S
C30 O37 1.240 . S
C30 O38 1.252 1_545 S
C31 O34 1.252 . S
C31 O35 1.260 . S
O32 In26 2.266 1_565 S
O32 C29 1.252 . S
O33 In26 2.326 . S
O33 C29 1.260 1_545 S
O34 In26 2.266 . S
O34 C31 1.252 . S
O35 In26 2.326 . S
O35 C31 1.260 . S
C36 O27 1.240 . S
C36 O28 1.252 . S
O37 In26 2.294 . S
O37 C30 1.240 . S
O38 In26 2.326 1_565 S
O38 C30 1.252 1_565 S
In39 O40 2.294 1_455 S
In39 O41 2.326 . S
In39 O45 2.266 1_455 S
In39 O46 2.326 1_455 S
In39 O47 2.266 . S
In39 O48 2.326 . S
In39 O50 2.294 . S
In39 O51 2.326 1_455 S
O40 In39 2.294 1_655 S
O40 C49 1.240 1_655 S
O41 In39 2.326 . S
O41 C49 1.252 . S
C42 O45 1.252 . S
C42 O46 1.260 . S
C43 O50 1.240 . S
C43 O51 1.252 1_455 S
C44 O47 1.252 . S
C44 O48 1.260 . S
O45 In39 2.266 1_655 S
O45 C42 1.252 . S
O46 In39 2.326 1_655 S
O46 C42 1.260 . S
O47 In39 2.266 . S
O47 C44 1.252 . S
O48 In39 2.326 . S
O48 C44 1.260 . S
C49 O40 1.240 1_455 S
C49 O41 1.252 . S
O50 In39 2.294 . S
O50 C43 1.240 . S
O51 In39 2.326 1_655 S
O51 C43 1.252 1_655 S
In52 O53 2.294 . S
In52 O54 2.326 1_545 S
In52 O58 2.266 . S
In52 O59 2.326 . S
In52 O60 2.266 1_545 S
In52 O61 2.326 . S
In52 O63 2.294 . S
In52 O64 2.326 . S
O53 In52 2.294 . S
O53 C62 1.240 . S
O54 In52 2.326 1_565 S
O54 C62 1.252 1_565 S
C55 O58 1.252 . S
C55 O59 1.260 . S
C56 O63 1.240 . S
C56 O64 1.252 . S
C57 O60 1.252 . S
C57 O61 1.260 1_565 S
O58 In52 2.266 . S
O58 C55 1.252 . S
O59 In52 2.326 . S
O59 C55 1.260 . S
O60 In52 2.266 1_565 S
O60 C57 1.252 . S
O61 In52 2.326 . S
O61 C57 1.260 1_545 S
C62 O53 1.240 . S
C62 O54 1.252 1_545 S
O63 In52 2.294 . S
O63 C56 1.240 . S
O64 In52 2.326 . S
O64 C56 1.252 . S
In65 O66 2.294 . S
In65 O67 2.326 1_455 S
In65 O71 2.266 . S
In65 O72 2.326 . S
In65 O73 2.266 1_455 S
In65 O74 2.326 1_455 S
In65 O76 2.294 1_455 S
In65 O77 2.326 . S
O66 In65 2.294 . S
O66 C75 1.240 . S
O67 In65 2.326 1_655 S
O67 C75 1.252 1_655 S
C68 O71 1.252 . S
C68 O72 1.260 . S
C69 O76 1.240 1_455 S
C69 O77 1.252 . S
C70 O73 1.252 . S
C70 O74 1.260 . S
O71 In65 2.266 . S
O71 C68 1.252 . S
O72 In65 2.326 . S
O72 C68 1.260 . S
O73 In65 2.266 1_655 S
O73 C70 1.252 . S
O74 In65 2.326 1_655 S
O74 C70 1.260 . S
C75 O66 1.240 . S
C75 O67 1.252 1_455 S
O76 In65 2.294 1_655 S
O76 C69 1.240 1_655 S
O77 In65 2.326 . S
O77 C69 1.252 . S
In78 O79 2.294 1_545 S
In78 O80 2.326 . S
In78 O84 2.266 1_545 S
In78 O85 2.326 1_545 S
In78 O86 2.266 . S
In78 O87 2.326 . S
In78 O89 2.294 . S
In78 O90 2.326 1_545 S
O79 In78 2.294 1_565 S
O79 C88 1.240 1_565 S
O80 In78 2.326 . S
O80 C88 1.252 . S
C81 O84 1.252 . S
C81 O85 1.260 . S
C82 O89 1.240 . S
C82 O90 1.252 1_545 S
C83 O86 1.252 . S
C83 O87 1.260 . S
O84 In78 2.266 1_565 S
O84 C81 1.252 . S
O85 In78 2.326 1_565 S
O85 C81 1.260 . S
O86 In78 2.266 . S
O86 C83 1.252 . S
O87 In78 2.326 . S
O87 C83 1.260 . S
C88 O79 1.240 1_545 S
C88 O80 1.252 . S
O89 In78 2.294 . S
O89 C82 1.240 . S
O90 In78 2.326 1_565 S
O90 C82 1.252 1_565 S
In91 O92 2.294 . S
In91 O93 2.326 1_455 S
In91 O97 2.266 . S
In91 O98 2.326 . S
In91 O99 2.266 1_455 S
In91 O100 2.326 . S
In91 O102 2.294 . S
In91 O103 2.326 . S
O92 In91 2.294 . S
O92 C101 1.240 . S
O93 In91 2.326 1_655 S
O93 C101 1.252 1_655 S
C94 O97 1.252 . S
C94 O98 1.260 . S
C95 O102 1.240 . S
C95 O103 1.252 . S
C96 O99 1.252 . S
C96 O100 1.260 1_655 S
O97 In91 2.266 . S
O97 C94 1.252 . S
O98 In91 2.326 . S
O98 C94 1.260 . S
O99 In91 2.266 1_655 S
O99 C96 1.252 . S
O100 In91 2.326 . S
O100 C96 1.260 1_455 S
C101 O92 1.240 . S
C101 O93 1.252 1_455 S
O102 In91 2.294 . S
O102 C95 1.240 . S
O103 In91 2.326 . S
O103 C95 1.252 . S
C4 C62 1.686 1_554 S
C17 C69 1.686 . S
C88 C30 1.687 1_556 S
C101 C49 1.687 . S
C10 C36 1.694 . S
C23 C43 1.693 . S
C82 C56 1.693 . S
C75 C95 1.694 . S
C68 C3 1.712 . S
C16 C83 1.712 . S
C96 C29 1.712 . S
C44 C57 1.712 . S
C81 C42 1.503 . S
C5 C94 1.503 . S
C18 C55 1.503 . S
C70 C31 1.503 . S
