# Generated by pormake.
# Topology dft, (4)-cn, num edge types: 1
# Building blocks:
#     Node 0, Type 0, BuildingBlock: AZAVOO_clean_sbu_0, # of connection points: 4
#     Node 1, Type 0, BuildingBlock: AZAVOO_clean_sbu_0, # of connection points: 4
#     Node 2, Type 0, BuildingBlock: AZAVOO_clean_sbu_0, # of connection points: 4
#     Node 3, Type 0, BuildingBlock: AZAVOO_clean_sbu_0, # of connection points: 4
#     Node 4, Type 0, BuildingBlock: AZAVOO_clean_sbu_0, # of connection points: 4
#     Node 5, Type 0, BuildingBlock: AZAVOO_clean_sbu_0, # of connection points: 4
#     Node 6, Type 0, BuildingBlock: AZAVOO_clean_sbu_0, # of connection points: 4
#     Node 7, Type 0, BuildingBlock: AZAVOO_clean_sbu_0, # of connection points: 4
#     Edge 8, Type (0, 0), BuildingBlock: KIFKEQ_clean_linker_1, # of connection points: 2
#     Edge 9, Type (0, 0), BuildingBlock: KIFKEQ_clean_linker_1, # of connection points: 2
#     Edge 10, Type (0, 0), BuildingBlock: KIFKEQ_clean_linker_1, # of connection points: 2
#     Edge 11, Type (0, 0), BuildingBlock: KIFKEQ_clean_linker_1, # of connection points: 2
#     Edge 12, Type (0, 0), BuildingBlock: KIFKEQ_clean_linker_1, # of connection points: 2
#     Edge 13, Type (0, 0), BuildingBlock: KIFKEQ_clean_linker_1, # of connection points: 2
#     Edge 14, Type (0, 0), BuildingBlock: KIFKEQ_clean_linker_1, # of connection points: 2
#     Edge 15, Type (0, 0), BuildingBlock: KIFKEQ_clean_linker_1, # of connection points: 2
#     Edge 16, Type (0, 0), BuildingBlock: KIFKEQ_clean_linker_1, # of connection points: 2
#     Edge 17, Type (0, 0), BuildingBlock: KIFKEQ_clean_linker_1, # of connection points: 2
#     Edge 18, Type (0, 0), BuildingBlock: KIFKEQ_clean_linker_1, # of connection points: 2
#     Edge 19, Type (0, 0), BuildingBlock: KIFKEQ_clean_linker_1, # of connection points: 2
#     Edge 20, Type (0, 0), BuildingBlock: KIFKEQ_clean_linker_1, # of connection points: 2
#     Edge 21, Type (0, 0), BuildingBlock: KIFKEQ_clean_linker_1, # of connection points: 2
#     Edge 22, Type (0, 0), BuildingBlock: KIFKEQ_clean_linker_1, # of connection points: 2
#     Edge 23, Type (0, 0), BuildingBlock: KIFKEQ_clean_linker_1, # of connection points: 2
# Relax obj value: 0.187
# Max RMSD: 0.167
# Mean RMSD: 0.161
data_MOF--net-dft--node1-AZAVOO_clean_sbu_0--edge1-KIFKEQ_clean_linker_1
_symmetry_space_group_name_H-M    P1
_symmetry_Int_Tables_number       1
_symmetry_cell_setting            triclinic
loop_
_symmetry_equiv_pos_as_xyz
'x, y, z'
_cell_length_a     34.922676
_cell_length_b     36.021186
_cell_length_c     37.90384
_cell_angle_alpha  90.023357
_cell_angle_beta   89.154838
_cell_angle_gamma 90.159042
loop_
_atom_site_label
_atom_site_type_symbol
_atom_site_fract_x
_atom_site_fract_y
_atom_site_fract_z
_atom_type_partial_charge
Mg0 Mg 0.29552 -0.01032 0.25087 0.0
O1 O 0.2784 -0.0005 0.19353 0.0
O2 O 0.21446 -0.00338 0.19122 0.0
Mg3 Mg 0.19074 0.98023 0.2458 0.0
C4 C 0.24721 0.00197 0.17655 0.0
C5 C 0.37518 -0.00639 0.21435 0.0
O6 O 0.35906 0.96565 0.19792 0.0
O7 O 0.27294 0.04803 0.26528 0.0
O8 O 0.20982 0.03671 0.26613 0.0
O9 O 0.29871 0.92767 0.24191 0.0
O10 O 0.24661 0.95785 0.2586 0.0
C11 C 0.23835 0.05818 0.27134 0.0
C12 C 0.26236 0.92733 0.24891 0.0
O13 O 0.35598 0.01081 0.238 0.0
Mg14 Mg 0.9908 0.31574 0.69935 0.0
O15 O 0.04747 0.29079 0.71722 0.0
O16 O 0.09443 0.30686 0.67939 0.0
Mg17 Mg 0.06755 0.34328 0.6371 0.0
C18 C 0.08259 0.29035 0.70732 0.0
C19 C 0.93889 0.29526 0.77441 0.0
O20 O 0.94043 0.30083 0.80864 0.0
O21 O 0.0118 0.37134 0.71861 0.0
O22 O 0.0577 0.38763 0.68002 0.0
O23 O 0.97915 0.26631 0.66363 0.0
O24 O 0.01176 0.31601 0.64756 0.0
C25 C 0.03749 0.39391 0.70776 0.0
C26 C 0.99925 0.28353 0.63979 0.0
O27 O 0.96621 0.30806 0.7554 0.0
Mg28 Mg 0.74342 0.03768 0.16962 0.0
O29 O 0.75724 0.04413 0.10983 0.0
O30 O 0.82116 0.04251 0.1051 0.0
Mg31 Mg 0.84811 0.03638 0.1588 0.0
C32 C 0.78816 0.04468 0.09124 0.0
C33 C 0.66009 0.03549 0.18827 0.0
O34 O 0.67835 0.04673 0.21643 0.0
O35 O 0.75746 0.97568 0.16596 0.0
O36 O 0.82143 0.97843 0.16068 0.0
O37 O 0.74841 0.0991 0.17934 0.0
O38 O 0.79628 0.05964 0.18259 0.0
C39 C 0.79014 0.96006 0.16267 0.0
C40 C 0.78437 0.09325 0.18496 0.0
O41 O 0.67962 0.02813 0.16055 0.0
Mg42 Mg 0.06095 0.72499 0.69127 0.0
O43 O 0.00513 0.75365 0.71006 0.0
O44 O 0.95664 0.72248 0.68574 0.0
Mg45 Mg 0.98035 0.67666 0.65067 0.0
C46 C 0.9693 0.74831 0.70546 0.0
C47 C 0.13035 0.76217 0.72299 0.0
O48 O 0.14232 0.7522 0.69135 0.0
O49 O 0.04979 0.67617 0.72813 0.0
O50 O 1.00221 0.64762 0.69997 0.0
O51 O 0.06406 0.76179 0.64376 0.0
O52 O 0.03435 0.70763 0.64576 0.0
C53 C 0.02574 0.64964 0.72538 0.0
C54 C 0.0433 0.73703 0.62821 0.0
O55 O 0.09608 0.75476 0.73236 0.0
Mg56 Mg 0.29252 0.05575 0.83654 0.0
O57 O 0.2792 0.05618 0.89666 0.0
O58 O 0.2152 0.05788 0.90119 0.0
Mg59 Mg 0.18801 0.06164 0.84731 0.0
C60 C 0.2482 0.05612 0.91515 0.0
C61 C 0.37415 0.04445 0.81516 0.0
O62 O 0.35585 0.05587 0.78714 0.0
O63 O 0.27267 -0.00504 0.83399 0.0
O64 O 0.20923 0.0028 0.83794 0.0
O65 O 0.29385 0.11821 0.83289 0.0
O66 O 0.24208 0.08384 0.82712 0.0
C67 C 0.23854 0.98197 0.83441 0.0
C68 C 0.25734 0.1163 0.82785 0.0
O69 O 0.35514 0.03984 0.84372 0.0
Mg70 Mg 0.04243 0.30879 0.32194 0.0
O71 O 0.99065 0.27611 0.3018 0.0
O72 O 0.93965 0.29158 0.33501 0.0
Mg73 Mg 0.95882 0.33226 0.37753 0.0
C74 C 0.95493 0.27368 0.30935 0.0
C75 C 0.09973 0.28877 0.24844 0.0
O76 O 0.09988 0.29886 0.21511 0.0
O77 O 0.01726 0.36066 0.29827 0.0
O78 O 0.96823 0.37583 0.33375 0.0
O79 O 0.05692 0.26358 0.36131 0.0
O80 O 0.01742 0.30969 0.37228 0.0
C81 C 0.98957 0.38197 0.3067 0.0
C82 C 0.03321 0.27964 0.38291 0.0
O83 O 0.07338 0.30168 0.26845 0.0
Mg84 Mg 0.73936 0.00454 0.75185 0.0
O85 O 0.75615 0.01316 0.80951 0.0
O86 O 0.82018 0.01302 0.81151 0.0
Mg87 Mg 0.84438 -0.00037 0.75634 0.0
C88 C 0.78731 0.01638 0.82647 0.0
C89 C 0.65927 0.00472 0.78826 0.0
O90 O 0.676 0.97708 0.8045 0.0
O91 O 0.75937 0.06422 0.73926 0.0
O92 O 0.82289 0.05579 0.73763 0.0
O93 O 0.73845 0.94231 0.75909 0.0
O94 O 0.78946 0.97492 0.74333 0.0
C95 C 0.79343 0.07607 0.73322 0.0
C96 C 0.77482 0.94355 0.75225 0.0
O97 O 0.67818 0.02284 0.76501 0.0
Mg98 Mg 0.97148 0.71583 0.30682 0.0
O99 O 0.02948 0.74095 0.28911 0.0
O100 O 0.07559 0.70981 0.31668 0.0
Mg101 Mg 0.04781 0.66671 0.3527 0.0
C102 C 0.06481 0.73491 0.29531 0.0
C103 C 0.90544 0.73944 0.25854 0.0
O104 O 0.88797 0.71485 0.27873 0.0
O105 O 0.98132 0.66441 0.27287 0.0
O106 O 0.02643 0.63589 0.30411 0.0
O107 O 0.96857 0.75522 0.35246 0.0
O108 O 0.99493 0.6996 0.35417 0.0
C109 C 1.00394 0.6372 0.27788 0.0
C110 C 0.98707 0.73033 0.36995 0.0
O111 O 0.94096 0.74548 0.26275 0.0
H112 H 0.19127 0.03419 0.13794 0.0
H113 H 0.30729 -0.0065 0.13002 0.0
H114 H 0.19348 0.0511 0.07596 0.0
H115 H 0.30894 0.00856 0.06723 0.0
H116 H 0.30958 0.06549 0.95929 0.0
H117 H 0.31066 0.05528 0.02312 0.0
H118 H 0.1915 0.02243 0.02127 0.0
H119 H 0.19003 0.03424 0.95867 0.0
C120 C 0.21714 0.02847 0.1228 0.0
C121 C 0.24894 0.01217 0.13877 0.0
C122 C 0.21841 0.03802 0.08714 0.0
C123 C 0.25123 0.03077 0.06626 0.0
C124 C 0.28333 0.01496 0.08245 0.0
C125 C 0.28229 0.00602 0.1184 0.0
C126 C 0.28362 0.05642 0.97272 0.0
C127 C 0.24967 0.05105 0.95391 0.0
C128 C 0.28425 0.05031 0.00926 0.0
C129 C 0.25107 0.03825 0.02758 0.0
C130 C 0.21736 0.03267 0.00848 0.0
C131 C 0.21658 0.03927 0.97232 0.0
H132 H 0.95011 0.24366 0.59913 0.0
H133 H 0.06464 0.28867 0.60015 0.0
H134 H 0.9575 0.23034 0.53589 0.0
H135 H 0.07204 0.27579 0.5374 0.0
H136 H 0.08201 0.24099 0.42485 0.0
H137 H 0.07455 0.22933 0.48831 0.0
H138 H 0.96082 0.27594 0.48606 0.0
H139 H 0.96824 0.28725 0.42312 0.0
C140 C 0.97719 0.24976 0.58605 0.0
C141 C 0.00655 0.26785 0.60431 0.0
C142 C 0.98135 0.24238 0.54986 0.0
C143 C 0.01521 0.25237 0.53154 0.0
C144 C 0.04565 0.2676 0.55065 0.0
C145 C 0.04126 0.27543 0.58658 0.0
C146 C 0.05509 0.24782 0.43781 0.0
C147 C 0.02597 0.2657 0.41915 0.0
C148 C 0.05089 0.24133 0.47414 0.0
C149 C 0.01722 0.25202 0.49229 0.0
C150 C 0.98703 0.26718 0.47293 0.0
C151 C 0.99146 0.27411 0.43684 0.0
H152 H 0.84218 0.0487 0.86658 0.0
H153 H 0.72791 0.00278 0.87268 0.0
H154 H 0.84022 0.06064 0.92965 0.0
H155 H 0.72657 0.0129 0.93636 0.0
H156 H 0.72602 0.05808 0.04894 0.0
H157 H 0.7242 0.05536 0.98444 0.0
H158 H 0.84433 0.02659 0.98147 0.0
H159 H 0.8465 0.03093 0.04487 0.0
C160 C 0.81673 0.04087 0.8815 0.0
C161 C 0.7854 0.02441 0.86473 0.0
C162 C 0.81561 0.04757 0.91776 0.0
C163 C 0.78345 0.03725 0.93838 0.0
C164 C 0.75168 0.02158 0.92139 0.0
C165 C 0.75254 0.01549 0.88491 0.0
C166 C 0.75206 0.0516 0.03436 0.0
C167 C 0.78641 0.04496 0.05215 0.0
C168 C 0.75099 0.04978 0.99741 0.0
C169 C 0.78418 0.04092 0.97756 0.0
C170 C 0.8184 0.03442 0.99556 0.0
C171 C 0.81956 0.03669 0.03219 0.0
H172 H 0.97669 0.79244 0.41114 0.0
H173 H 0.02157 0.68071 0.4129 0.0
H174 H 0.98897 0.79823 0.47452 0.0
H175 H 0.03426 0.68682 0.47524 0.0
H176 H 0.05756 0.79538 0.58319 0.0
H177 H 0.04437 0.79774 0.51981 0.0
H178 H 0.98913 0.69058 0.5269 0.0
H179 H 1.00272 0.68776 0.58927 0.0
C180 C 0.98964 0.76939 0.42485 0.0
C181 C 0.99803 0.73606 0.40702 0.0
C182 C 0.99672 0.77277 0.46101 0.0
C183 C 0.01199 0.74276 0.47976 0.0
C184 C 0.02179 0.71015 0.46154 0.0
C185 C 0.01483 0.7068 0.42567 0.0
C186 C 0.04216 0.7726 0.57121 0.0
C187 C 0.03137 0.74129 0.59123 0.0
C188 C 0.03456 0.77403 0.53505 0.0
C189 C 0.0163 0.74408 0.51848 0.0
C190 C 1.0039 0.71375 0.53891 0.0
C191 C 0.01142 0.71232 0.5748 0.0
H192 H 0.41685 0.05156 0.24087 0.0
H193 H 0.42573 0.95684 0.17129 0.0
H194 H 0.48485 0.06439 0.2316 0.0
H195 H 0.49383 0.96894 0.16289 0.0
H196 H 0.61157 0.01645 0.1346 0.0
H197 H 0.54188 0.00964 0.13806 0.0
H198 H 0.54401 0.03753 0.24893 0.0
H199 H 0.61293 0.04528 0.24524 0.0
C200 C 0.43327 0.03351 0.22355 0.0
C201 C 0.41588 0.00303 0.20705 0.0
C202 C 0.47233 0.04072 0.21837 0.0
C203 C 0.495 0.01749 0.19673 0.0
C204 C 0.47728 -0.01234 0.17942 0.0
C205 C 0.43819 0.98057 0.18445 0.0
C206 C 0.59705 0.02126 0.15963 0.0
C207 C 0.61784 0.03139 0.18962 0.0
C208 C 0.55714 0.01722 0.16167 0.0
C209 C 0.53722 0.02316 0.19377 0.0
C210 C 0.55817 0.03344 0.22362 0.0
C211 C 0.59787 0.03758 0.22155 0.0
H212 H 0.09073 0.44802 0.69449 0.0
H213 H 0.99663 0.41969 0.76498 0.0
H214 H 0.09238 0.51006 0.71914 0.0
H215 H 0.99876 0.48197 0.79011 0.0
H216 H 0.96888 0.60287 0.74624 0.0
H217 H 0.97759 0.53769 0.75952 0.0
H218 H 0.09964 0.55531 0.76719 0.0
H219 H 0.09076 0.62094 0.75347 0.0
C220 C 0.07095 0.45474 0.71582 0.0
C221 C 0.04279 0.42926 0.72698 0.0
C222 C 0.07228 0.49023 0.7304 0.0
C223 C 0.04545 0.50106 0.75644 0.0
C224 C 0.01954 0.47451 0.76984 0.0
C225 C 0.01823 0.43891 0.75527 0.0
C226 C 0.99736 0.59317 0.7524 0.0
C227 C 0.02925 0.61653 0.74779 0.0
C228 C 1.00241 0.55575 0.76022 0.0
C229 C 0.03949 0.54115 0.76329 0.0
C230 C 0.07082 0.56575 0.76417 0.0
C231 C 0.0657 0.60337 0.75657 0.0
H232 H 0.61596 0.06042 0.76038 0.0
H233 H 0.60969 0.96726 0.83205 0.0
H234 H 0.54764 0.07122 0.76925 0.0
H235 H 0.54119 0.9775 0.84022 0.0
H236 H 0.42314 0.02637 0.86866 0.0
H237 H 0.49271 0.01893 0.86452 0.0
H238 H 0.48904 0.0412 0.75261 0.0
H239 H 0.4202 0.04938 0.75686 0.0
C240 C 0.60005 0.04228 0.77808 0.0
C241 C 0.61827 0.01283 0.79529 0.0
C242 C 0.5608 0.04833 0.78302 0.0
C243 C 0.5388 0.02499 0.8052 0.0
C244 C 0.55728 -0.00381 0.8232 0.0
C245 C 0.59656 -0.00979 0.81833 0.0
C246 C 0.43726 0.02964 0.84322 0.0
C247 C 0.41611 0.03856 0.81313 0.0
C248 C 0.47709 0.02528 0.84081 0.0
C249 C 0.49654 0.02976 0.80827 0.0
C250 C 0.47519 0.03832 0.77823 0.0
C251 C 0.43556 0.04271 0.78064 0.0
H252 H 0.93609 0.43623 0.31779 0.0
H253 H 0.02973 0.40517 0.24803 0.0
H254 H 0.93481 0.49733 0.29104 0.0
H255 H 0.02792 0.46639 0.22079 0.0
H256 H 0.05977 0.58871 0.25927 0.0
H257 H 0.04992 0.52294 0.24935 0.0
H258 H 0.92804 0.54117 0.24188 0.0
H259 H 0.93813 0.60745 0.25213 0.0
C260 C 0.95577 0.44207 0.29613 0.0
C261 C 0.98379 0.41619 0.28584 0.0
C262 C 0.95469 0.47705 0.28039 0.0
C263 C 0.9816 0.48688 0.25401 0.0
C264 C 0.00716 0.45976 0.24137 0.0
C265 C 0.00827 0.42474 0.25713 0.0
C266 C 0.03108 0.57892 0.25382 0.0
C267 C 0.99964 0.60285 0.25731 0.0
C268 C 0.02536 0.54115 0.24798 0.0
C269 C 0.98803 0.5267 0.24585 0.0
C270 C 0.95706 0.55151 0.24415 0.0
C271 C 0.96287 0.58949 0.2497 0.0
H272 H 0.10753 0.25773 0.31422 0.0
H273 H 0.1592 0.26061 0.21019 0.0
H274 H 0.15125 0.20788 0.33082 0.0
H275 H 0.20199 0.21097 0.22615 0.0
H276 H 0.27842 0.12196 0.25555 0.0
H277 H 0.25349 0.18534 0.25969 0.0
H278 H 0.15202 0.14382 0.31334 0.0
H279 H 0.17724 0.08137 0.30999 0.0
C280 C 0.1284 0.24802 0.29512 0.0
C281 C 0.12915 0.26244 0.26075 0.0
C282 C 0.15354 0.21957 0.30455 0.0
C283 C 0.17998 0.20512 0.27972 0.0
C284 C 0.18244 0.22155 0.24616 0.0
C285 C 0.1574 0.24982 0.23683 0.0
C286 C 0.25148 0.12671 0.26934 0.0
C287 C 0.22937 0.09674 0.28176 0.0
C288 C 0.23703 0.16292 0.27149 0.0
C289 C 0.20036 0.1696 0.28619 0.0
C290 C 0.18034 0.13993 0.30193 0.0
C291 C 0.19467 0.10395 0.2997 0.0
H292 H 0.8804 0.26344 0.81137 0.0
H293 H 0.92382 0.27806 0.70513 0.0
H294 H 0.83387 0.21911 0.79071 0.0
H295 H 0.87682 0.23283 0.68397 0.0
H296 H 0.85056 0.10325 0.69177 0.0
H297 H 0.87589 0.16594 0.69286 0.0
H298 H 0.77886 0.20097 0.75653 0.0
H299 H 0.75379 0.13741 0.75591 0.0
C300 C 0.87965 0.25764 0.78335 0.0
C301 C 0.9069 0.27319 0.75998 0.0
C302 C 0.85246 0.23245 0.77138 0.0
C303 C 0.85176 0.22204 0.73569 0.0
C304 C 0.87701 0.23984 0.71176 0.0
C305 C 0.90419 0.2654 0.72383 0.0
C306 C 0.83394 0.12462 0.705 0.0
C307 C 0.80072 0.11538 0.72447 0.0
C308 C 0.84833 0.16073 0.70539 0.0
C309 C 0.82987 0.18834 0.72547 0.0
C310 C 0.7941 0.18007 0.74138 0.0
C311 C 0.77956 0.14379 0.74083 0.0
H312 H 0.82769 0.74059 0.24941 0.0
H313 H 0.93302 0.79259 0.21382 0.0
H314 H 0.79103 0.78626 0.21637 0.0
H315 H 0.89677 0.83837 0.18183 0.0
H316 H 0.83392 0.91606 0.12087 0.0
H317 H 0.85538 0.85353 0.13488 0.0
H318 H 0.77821 0.85153 0.22513 0.0
H319 H 0.75552 0.91341 0.20981 0.0
C320 C 0.84303 0.76138 0.23412 0.0
C321 C 0.88327 0.76329 0.23459 0.0
C322 C 0.82201 0.78761 0.21531 0.0
C323 C 0.84085 0.81611 0.19654 0.0
C324 C 0.88116 0.81654 0.19546 0.0
C325 C 0.90207 0.79043 0.21417 0.0
C326 C 0.82051 0.90152 0.14284 0.0
C327 C 0.79347 0.91947 0.16455 0.0
C328 C 0.83301 0.86589 0.15108 0.0
C329 C 0.81942 0.84799 0.18176 0.0
C330 C 0.78931 0.86445 0.2013 0.0
C331 C 0.77625 0.89993 0.19258 0.0
H332 H 0.12295 0.77405 0.7939 0.0
H333 H 0.19356 0.80184 0.70317 0.0
H334 H 0.15844 0.81846 0.82941 0.0
H335 H 0.2276 0.84759 0.73789 0.0
H336 H 0.28639 0.93009 0.80378 0.0
H337 H 0.26814 0.86792 0.78383 0.0
H338 H 0.1555 0.88311 0.83055 0.0
H339 H 0.17411 0.94362 0.85137 0.0
C340 C 0.14625 0.78948 0.78164 0.0
C341 C 0.155 0.78508 0.74564 0.0
C342 C 0.16657 0.81499 0.80193 0.0
C343 C 0.19542 0.83725 0.7864 0.0
C344 C 0.20586 0.83083 0.75093 0.0
C345 C 0.18602 0.80481 0.73085 0.0
C346 C 0.25817 0.91953 0.8106 0.0
C347 C 0.23142 0.94201 0.82846 0.0
C348 C 0.24758 0.88407 0.79895 0.0
C349 C 0.21012 0.87061 0.80505 0.0
C350 C 0.18467 0.89211 0.82551 0.0
C351 C 0.19523 0.92723 0.83714 0.0
H352 H 0.76362 0.8753 0.7238 0.0
H353 H 0.84172 0.93854 0.78728 0.0
H354 H 0.81058 0.82549 0.7188 0.0
H355 H 0.88818 0.8883 0.78403 0.0
H356 H 0.97989 0.82089 0.72383 0.0
H357 H 0.93096 0.86524 0.74181 0.0
H358 H 0.84619 0.77739 0.74285 0.0
H359 H 0.89492 0.73363 0.72301 0.0
C360 C 0.79048 0.87794 0.73754 0.0
C361 C 0.79949 0.91079 0.75537 0.0
C362 C 0.81745 0.8494 0.73484 0.0
C363 C 0.85366 0.85299 0.75055 0.0
C364 C 0.86122 0.88495 0.77064 0.0
C365 C 0.83456 0.9137 0.7727 0.0
C366 C 0.95091 0.81103 0.72842 0.0
C367 C 0.94114 0.77395 0.72162 0.0
C368 C 0.92275 0.83641 0.73894 0.0
C369 C 0.88431 0.82509 0.74353 0.0
C370 C 0.87518 0.7874 0.73874 0.0
C371 C 0.90318 0.76222 0.7276 0.0
H372 H 0.19851 0.91975 0.20998 0.0
H373 H 0.27255 0.86042 0.28015 0.0
H374 H 0.15214 0.86911 0.21276 0.0
H375 H 0.22546 0.81046 0.28491 0.0
H376 H 0.05659 0.80604 0.27198 0.0
H377 H 0.10697 0.84879 0.25376 0.0
H378 H 0.19049 0.7609 0.2627 0.0
H379 H 0.14009 0.71878 0.28286 0.0
C380 C 0.20489 0.89554 0.22575 0.0
C381 C 0.23876 0.89385 0.24506 0.0
C382 C 0.17823 0.86665 0.22765 0.0
C383 C 0.18444 0.83589 0.2497 0.0
C384 C 0.21963 0.83339 0.26736 0.0
C385 C 0.2467 0.86201 0.26477 0.0
C386 C 0.08563 0.79575 0.26956 0.0
C387 C 0.09444 0.75921 0.27922 0.0
C388 C 0.11466 0.82023 0.25886 0.0
C389 C 0.15313 0.80853 0.25692 0.0
C390 C 0.16146 0.77125 0.26467 0.0
C391 C 0.13252 0.74699 0.27601 0.0
H392 H 0.0733 0.26822 0.77575 0.0
H393 H 0.15538 0.26877 0.68929 0.0
H394 H 0.11832 0.23422 0.81182 0.0
H395 H 0.19992 0.2335 0.72495 0.0
H396 H 0.28173 0.18237 0.79994 0.0
H397 H 0.24142 0.23122 0.77541 0.0
H398 H 0.14049 0.17225 0.81214 0.0
H399 H 0.18044 0.12501 0.83752 0.0
C400 C 0.10093 0.26097 0.76439 0.0
C401 C 0.11055 0.27071 0.72947 0.0
C402 C 0.12677 0.24151 0.78509 0.0
C403 C 0.16266 0.23086 0.77124 0.0
C404 C 0.17276 0.24168 0.73667 0.0
C405 C 0.14705 0.26155 0.71607 0.0
C406 C 0.25096 0.18055 0.8036 0.0
C407 C 0.2342 0.14944 0.82004 0.0
C408 C 0.22786 0.20826 0.78921 0.0
C409 C 0.18768 0.20536 0.79127 0.0
C410 C 0.17127 0.17561 0.81011 0.0
C411 C 0.19426 0.14808 0.82437 0.0
H412 H 0.87769 0.26214 0.31642 0.0
H413 H 0.97586 0.23186 0.25183 0.0
H414 H 0.83722 0.22217 0.28099 0.0
H415 H 0.93506 0.19236 0.21604 0.0
H416 H 0.8602 0.08737 0.1999 0.0
H417 H 0.90141 0.13385 0.22567 0.0
H418 H 0.80954 0.21375 0.22212 0.0
H419 H 0.76775 0.16673 0.19622 0.0
C420 C 0.89065 0.24718 0.29454 0.0
C421 C 0.93017 0.24996 0.28724 0.0
C422 C 0.86731 0.22455 0.27399 0.0
C423 C 0.88291 0.20415 0.24567 0.0
C424 C 0.92226 0.20748 0.23791 0.0
C425 C 0.94563 0.23014 0.25844 0.0
C426 C 0.84886 0.11501 0.20375 0.0
C427 C 0.81061 0.12329 0.19591 0.0
C428 C 0.87263 0.14175 0.21856 0.0
C429 C 0.85873 0.17745 0.22608 0.0
C430 C 0.82092 0.1863 0.21698 0.0
C431 C 0.79708 0.15948 0.20195 0.0
loop_
_geom_bond_atom_site_label_1
_geom_bond_atom_site_label_2
_geom_bond_distance
_geom_bond_site_symmetry_2
_ccdc_geom_bond_type
Mg0 O1 2.028 . S
Mg0 O7 1.986 . S
Mg0 O9 2.114 1_545 S
Mg0 O10 2.251 1_545 S
Mg0 O13 2.010 . S
O1 Mg0 2.028 . S
O1 C4 1.250 . S
O2 Mg3 2.028 . S
O2 C4 1.248 . S
Mg3 O2 2.028 . S
Mg3 O8 2.032 . S
Mg3 O10 2.079 1_545 S
C4 O1 1.250 . S
C4 O2 1.248 . S
C5 O6 1.264 . S
C5 O13 1.249 . S
O6 C5 1.264 . S
O7 Mg0 1.986 . S
O7 C11 1.246 . S
O8 Mg3 2.032 . S
O8 C11 1.259 . S
O9 Mg0 2.114 1_565 S
O9 C12 1.252 . S
O10 Mg0 2.251 1_565 S
O10 Mg3 2.079 1_565 S
O10 C12 1.273 . S
C11 O7 1.246 . S
C11 O8 1.259 . S
C12 O9 1.252 . S
C12 O10 1.273 . S
O13 Mg0 2.010 . S
O13 C5 1.249 . S
Mg14 O15 2.028 1_655 S
Mg14 O21 1.986 . S
Mg14 O23 2.114 . S
Mg14 O24 2.251 1_655 S
Mg14 O27 2.010 . S
O15 Mg14 2.028 1_455 S
O15 C18 1.250 . S
O16 Mg17 2.028 . S
O16 C18 1.248 . S
Mg17 O16 2.028 . S
Mg17 O22 2.032 . S
Mg17 O24 2.079 . S
C18 O15 1.250 . S
C18 O16 1.248 . S
C19 O20 1.264 . S
C19 O27 1.249 . S
O20 C19 1.264 . S
O21 Mg14 1.986 . S
O21 C25 1.246 1_655 S
O22 Mg17 2.032 . S
O22 C25 1.259 . S
O23 Mg14 2.114 . S
O23 C26 1.252 1_655 S
O24 Mg14 2.251 1_455 S
O24 Mg17 2.079 . S
O24 C26 1.273 . S
C25 O21 1.246 1_455 S
C25 O22 1.259 . S
C26 O23 1.252 1_455 S
C26 O24 1.273 . S
O27 Mg14 2.010 . S
O27 C19 1.249 . S
Mg28 O29 2.028 . S
Mg28 O35 1.986 1_545 S
Mg28 O37 2.114 . S
Mg28 O38 2.251 . S
Mg28 O41 2.010 . S
O29 Mg28 2.028 . S
O29 C32 1.250 . S
O30 Mg31 2.028 . S
O30 C32 1.248 . S
Mg31 O30 2.028 . S
Mg31 O36 2.032 1_545 S
Mg31 O38 2.079 . S
C32 O29 1.250 . S
C32 O30 1.248 . S
C33 O34 1.264 . S
C33 O41 1.249 . S
O34 C33 1.264 . S
O35 Mg28 1.986 1_565 S
O35 C39 1.246 . S
O36 Mg31 2.032 1_565 S
O36 C39 1.259 . S
O37 Mg28 2.114 . S
O37 C40 1.252 . S
O38 Mg28 2.251 . S
O38 Mg31 2.079 . S
O38 C40 1.273 . S
C39 O35 1.246 . S
C39 O36 1.259 . S
C40 O37 1.252 . S
C40 O38 1.273 . S
O41 Mg28 2.010 . S
O41 C33 1.249 . S
Mg42 O43 2.028 1_455 S
Mg42 O49 1.986 . S
Mg42 O51 2.114 . S
Mg42 O52 2.251 1_455 S
Mg42 O55 2.010 . S
O43 Mg42 2.028 1_655 S
O43 C46 1.250 . S
O44 Mg45 2.028 . S
O44 C46 1.248 . S
Mg45 O44 2.028 . S
Mg45 O50 2.032 . S
Mg45 O52 2.079 . S
C46 O43 1.250 . S
C46 O44 1.248 . S
C47 O48 1.264 . S
C47 O55 1.249 . S
O48 C47 1.264 . S
O49 Mg42 1.986 . S
O49 C53 1.246 . S
O50 Mg45 2.032 . S
O50 C53 1.259 1_655 S
O51 Mg42 2.114 . S
O51 C54 1.252 . S
O52 Mg42 2.251 1_655 S
O52 Mg45 2.079 . S
O52 C54 1.273 1_655 S
C53 O49 1.246 . S
C53 O50 1.259 1_455 S
C54 O51 1.252 . S
C54 O52 1.273 1_455 S
O55 Mg42 2.010 . S
O55 C47 1.249 . S
Mg56 O57 2.028 . S
Mg56 O63 1.986 1_545 S
Mg56 O65 2.114 . S
Mg56 O66 2.251 . S
Mg56 O69 2.010 . S
O57 Mg56 2.028 . S
O57 C60 1.250 . S
O58 Mg59 2.028 . S
O58 C60 1.248 . S
Mg59 O58 2.028 . S
Mg59 O64 2.032 1_545 S
Mg59 O66 2.079 . S
C60 O57 1.250 . S
C60 O58 1.248 . S
C61 O62 1.264 . S
C61 O69 1.249 . S
O62 C61 1.264 . S
O63 Mg56 1.986 1_565 S
O63 C67 1.246 . S
O64 Mg59 2.032 1_565 S
O64 C67 1.259 . S
O65 Mg56 2.114 . S
O65 C68 1.252 . S
O66 Mg56 2.251 . S
O66 Mg59 2.079 . S
O66 C68 1.273 . S
C67 O63 1.246 . S
C67 O64 1.259 . S
C68 O65 1.252 . S
C68 O66 1.273 . S
O69 Mg56 2.010 . S
O69 C61 1.249 . S
Mg70 O71 2.028 1_455 S
Mg70 O77 1.986 . S
Mg70 O79 2.114 . S
Mg70 O80 2.251 1_455 S
Mg70 O83 2.010 . S
O71 Mg70 2.028 1_655 S
O71 C74 1.250 . S
O72 Mg73 2.028 . S
O72 C74 1.248 . S
Mg73 O72 2.028 . S
Mg73 O78 2.032 . S
Mg73 O80 2.079 . S
C74 O71 1.250 . S
C74 O72 1.248 . S
C75 O76 1.264 . S
C75 O83 1.249 . S
O76 C75 1.264 . S
O77 Mg70 1.986 . S
O77 C81 1.246 . S
O78 Mg73 2.032 . S
O78 C81 1.259 1_655 S
O79 Mg70 2.114 . S
O79 C82 1.252 . S
O80 Mg70 2.251 1_655 S
O80 Mg73 2.079 . S
O80 C82 1.273 1_655 S
C81 O77 1.246 . S
C81 O78 1.259 1_455 S
C82 O79 1.252 . S
C82 O80 1.273 1_455 S
O83 Mg70 2.010 . S
O83 C75 1.249 . S
Mg84 O85 2.028 . S
Mg84 O91 1.986 . S
Mg84 O93 2.114 1_545 S
Mg84 O94 2.251 1_545 S
Mg84 O97 2.010 . S
O85 Mg84 2.028 . S
O85 C88 1.250 . S
O86 Mg87 2.028 . S
O86 C88 1.248 . S
Mg87 O86 2.028 . S
Mg87 O92 2.032 . S
Mg87 O94 2.079 1_545 S
C88 O85 1.250 . S
C88 O86 1.248 . S
C89 O90 1.264 . S
C89 O97 1.249 . S
O90 C89 1.264 . S
O91 Mg84 1.986 . S
O91 C95 1.246 . S
O92 Mg87 2.032 . S
O92 C95 1.259 . S
O93 Mg84 2.114 1_565 S
O93 C96 1.252 . S
O94 Mg84 2.251 1_565 S
O94 Mg87 2.079 1_565 S
O94 C96 1.273 . S
C95 O91 1.246 . S
C95 O92 1.259 . S
C96 O93 1.252 . S
C96 O94 1.273 . S
O97 Mg84 2.010 . S
O97 C89 1.249 . S
Mg98 O99 2.028 1_655 S
Mg98 O105 1.986 . S
Mg98 O107 2.114 . S
Mg98 O108 2.251 1_655 S
Mg98 O111 2.010 . S
O99 Mg98 2.028 1_455 S
O99 C102 1.250 . S
O100 Mg101 2.028 . S
O100 C102 1.248 . S
Mg101 O100 2.028 . S
Mg101 O106 2.032 . S
Mg101 O108 2.079 . S
C102 O99 1.250 . S
C102 O100 1.248 . S
C103 O104 1.264 . S
C103 O111 1.249 . S
O104 C103 1.264 . S
O105 Mg98 1.986 . S
O105 C109 1.246 1_655 S
O106 Mg101 2.032 . S
O106 C109 1.259 . S
O107 Mg98 2.114 . S
O107 C110 1.252 1_655 S
O108 Mg98 2.251 1_455 S
O108 Mg101 2.079 . S
O108 C110 1.273 . S
C109 O105 1.246 1_455 S
C109 O106 1.259 . S
C110 O107 1.252 1_455 S
C110 O108 1.273 . S
O111 Mg98 2.010 . S
O111 C103 1.249 . S
H112 C120 0.950 . S
H113 C125 0.950 . S
H114 C122 0.950 . S
H115 C124 0.950 . S
H116 C126 0.950 . S
H117 C128 0.950 . S
H118 C130 0.950 . S
H119 C131 0.950 . S
C120 H112 0.950 . S
C120 C121 1.386 . S
C120 C122 1.391 . S
C121 C120 1.386 . S
C121 C125 1.393 . S
C122 H114 0.950 . S
C122 C120 1.391 . S
C122 C123 1.400 . S
C123 C122 1.400 . S
C123 C124 1.398 . S
C123 C129 1.491 1_554 S
C124 H115 0.950 . S
C124 C123 1.398 . S
C124 C125 1.391 . S
C125 H113 0.950 . S
C125 C121 1.393 . S
C125 C124 1.391 . S
C126 H116 0.950 . S
C126 C127 1.386 . S
C126 C128 1.391 . S
C127 C126 1.386 . S
C127 C131 1.393 . S
C128 H117 0.950 . S
C128 C126 1.391 . S
C128 C129 1.400 . S
C129 C123 1.491 1_556 S
C129 C128 1.400 . S
C129 C130 1.398 . S
C130 H118 0.950 . S
C130 C129 1.398 . S
C130 C131 1.391 . S
C131 H119 0.950 . S
C131 C127 1.393 . S
C131 C130 1.391 . S
H132 C140 0.950 . S
H133 C145 0.950 . S
H134 C142 0.950 . S
H135 C144 0.950 . S
H136 C146 0.950 . S
H137 C148 0.950 . S
H138 C150 0.950 . S
H139 C151 0.950 . S
C140 H132 0.950 . S
C140 C141 1.386 1_655 S
C140 C142 1.391 . S
C141 C140 1.386 1_455 S
C141 C145 1.393 . S
C142 H134 0.950 . S
C142 C140 1.391 . S
C142 C143 1.400 1_655 S
C143 C142 1.400 1_455 S
C143 C144 1.398 . S
C143 C149 1.491 . S
C144 H135 0.950 . S
C144 C143 1.398 . S
C144 C145 1.391 . S
C145 H133 0.950 . S
C145 C141 1.393 . S
C145 C144 1.391 . S
C146 H136 0.950 . S
C146 C147 1.386 . S
C146 C148 1.391 . S
C147 C146 1.386 . S
C147 C151 1.393 1_455 S
C148 H137 0.950 . S
C148 C146 1.391 . S
C148 C149 1.400 . S
C149 C143 1.491 . S
C149 C148 1.400 . S
C149 C150 1.398 1_455 S
C150 H138 0.950 . S
C150 C149 1.398 1_655 S
C150 C151 1.391 . S
C151 H139 0.950 . S
C151 C147 1.393 1_655 S
C151 C150 1.391 . S
H152 C160 0.950 . S
H153 C165 0.950 . S
H154 C162 0.950 . S
H155 C164 0.950 . S
H156 C166 0.950 . S
H157 C168 0.950 . S
H158 C170 0.950 . S
H159 C171 0.950 . S
C160 H152 0.950 . S
C160 C161 1.386 . S
C160 C162 1.391 . S
C161 C160 1.386 . S
C161 C165 1.393 . S
C162 H154 0.950 . S
C162 C160 1.391 . S
C162 C163 1.400 . S
C163 C162 1.400 . S
C163 C164 1.398 . S
C163 C169 1.491 1_556 S
C164 H155 0.950 . S
C164 C163 1.398 . S
C164 C165 1.391 . S
C165 H153 0.950 . S
C165 C161 1.393 . S
C165 C164 1.391 . S
C166 H156 0.950 . S
C166 C167 1.386 . S
C166 C168 1.391 . S
C167 C166 1.386 . S
C167 C171 1.393 . S
C168 H157 0.950 . S
C168 C166 1.391 . S
C168 C169 1.400 . S
C169 C163 1.491 1_554 S
C169 C168 1.400 . S
C169 C170 1.398 . S
C170 H158 0.950 . S
C170 C169 1.398 . S
C170 C171 1.391 . S
C171 H159 0.950 . S
C171 C167 1.393 . S
C171 C170 1.391 . S
H172 C180 0.950 . S
H173 C185 0.950 . S
H174 C182 0.950 . S
H175 C184 0.950 . S
H176 C186 0.950 . S
H177 C188 0.950 . S
H178 C190 0.950 . S
H179 C191 0.950 . S
C180 H172 0.950 . S
C180 C181 1.386 1_655 S
C180 C182 1.391 . S
C181 C180 1.386 1_455 S
C181 C185 1.393 . S
C182 H174 0.950 . S
C182 C180 1.391 . S
C182 C183 1.400 1_655 S
C183 C182 1.400 1_455 S
C183 C184 1.398 . S
C183 C189 1.491 . S
C184 H175 0.950 . S
C184 C183 1.398 . S
C184 C185 1.391 . S
C185 H173 0.950 . S
C185 C181 1.393 . S
C185 C184 1.391 . S
C186 H176 0.950 . S
C186 C187 1.386 . S
C186 C188 1.391 . S
C187 C186 1.386 . S
C187 C191 1.393 1_455 S
C188 H177 0.950 . S
C188 C186 1.391 . S
C188 C189 1.400 . S
C189 C183 1.491 . S
C189 C188 1.400 . S
C189 C190 1.398 1_455 S
C190 H178 0.950 . S
C190 C189 1.398 1_655 S
C190 C191 1.391 . S
C191 H179 0.950 . S
C191 C187 1.393 1_655 S
C191 C190 1.391 . S
H192 C200 0.950 . S
H193 C205 0.950 . S
H194 C202 0.950 . S
H195 C204 0.950 . S
H196 C206 0.950 1_565 S
H197 C208 0.950 1_565 S
H198 C210 0.950 . S
H199 C211 0.950 . S
C200 H192 0.950 . S
C200 C201 1.386 . S
C200 C202 1.391 . S
C201 C200 1.386 . S
C201 C205 1.393 1_545 S
C202 H194 0.950 . S
C202 C200 1.391 . S
C202 C203 1.400 . S
C203 C202 1.400 . S
C203 C204 1.398 1_545 S
C203 C209 1.491 . S
C204 H195 0.950 . S
C204 C203 1.398 1_565 S
C204 C205 1.391 . S
C205 H193 0.950 . S
C205 C201 1.393 1_565 S
C205 C204 1.391 . S
C206 H196 0.950 1_545 S
C206 C207 1.386 . S
C206 C208 1.391 . S
C207 C206 1.386 . S
C207 C211 1.393 . S
C208 H197 0.950 1_545 S
C208 C206 1.391 . S
C208 C209 1.400 . S
C209 C203 1.491 . S
C209 C208 1.400 . S
C209 C210 1.398 . S
C210 H198 0.950 . S
C210 C209 1.398 . S
C210 C211 1.391 . S
C211 H199 0.950 . S
C211 C207 1.393 . S
C211 C210 1.391 . S
H212 C220 0.950 . S
H213 C225 0.950 . S
H214 C222 0.950 . S
H215 C224 0.950 . S
H216 C226 0.950 . S
H217 C228 0.950 . S
H218 C230 0.950 . S
H219 C231 0.950 . S
C220 H212 0.950 . S
C220 C221 1.386 . S
C220 C222 1.391 . S
C221 C220 1.386 . S
C221 C225 1.393 1_455 S
C222 H214 0.950 . S
C222 C220 1.391 . S
C222 C223 1.400 . S
C223 C222 1.400 . S
C223 C224 1.398 1_455 S
C223 C229 1.491 . S
C224 H215 0.950 . S
C224 C223 1.398 1_655 S
C224 C225 1.391 . S
C225 H213 0.950 . S
C225 C221 1.393 1_655 S
C225 C224 1.391 . S
C226 H216 0.950 . S
C226 C227 1.386 1_655 S
C226 C228 1.391 . S
C227 C226 1.386 1_455 S
C227 C231 1.393 . S
C228 H217 0.950 . S
C228 C226 1.391 . S
C228 C229 1.400 1_655 S
C229 C223 1.491 . S
C229 C228 1.400 1_455 S
C229 C230 1.398 . S
C230 H218 0.950 . S
C230 C229 1.398 . S
C230 C231 1.391 . S
C231 H219 0.950 . S
C231 C227 1.393 . S
C231 C230 1.391 . S
H232 C240 0.950 . S
H233 C245 0.950 . S
H234 C242 0.950 . S
H235 C244 0.950 . S
H236 C246 0.950 1_565 S
H237 C248 0.950 1_565 S
H238 C250 0.950 . S
H239 C251 0.950 . S
C240 H232 0.950 . S
C240 C241 1.386 . S
C240 C242 1.391 . S
C241 C240 1.386 . S
C241 C245 1.393 1_545 S
C242 H234 0.950 . S
C242 C240 1.391 . S
C242 C243 1.400 . S
C243 C242 1.400 . S
C243 C244 1.398 1_545 S
C243 C249 1.491 . S
C244 H235 0.950 . S
C244 C243 1.398 1_565 S
C244 C245 1.391 . S
C245 H233 0.950 . S
C245 C241 1.393 1_565 S
C245 C244 1.391 . S
C246 H236 0.950 1_545 S
C246 C247 1.386 . S
C246 C248 1.391 . S
C247 C246 1.386 . S
C247 C251 1.393 . S
C248 H237 0.950 1_545 S
C248 C246 1.391 . S
C248 C249 1.400 . S
C249 C243 1.491 . S
C249 C248 1.400 . S
C249 C250 1.398 . S
C250 H238 0.950 . S
C250 C249 1.398 . S
C250 C251 1.391 . S
C251 H239 0.950 . S
C251 C247 1.393 . S
C251 C250 1.391 . S
H252 C260 0.950 . S
H253 C265 0.950 . S
H254 C262 0.950 . S
H255 C264 0.950 . S
H256 C266 0.950 . S
H257 C268 0.950 . S
H258 C270 0.950 . S
H259 C271 0.950 . S
C260 H252 0.950 . S
C260 C261 1.386 1_655 S
C260 C262 1.391 . S
C261 C260 1.386 1_455 S
C261 C265 1.393 . S
C262 H254 0.950 . S
C262 C260 1.391 . S
C262 C263 1.400 1_655 S
C263 C262 1.400 1_455 S
C263 C264 1.398 . S
C263 C269 1.491 . S
C264 H255 0.950 . S
C264 C263 1.398 . S
C264 C265 1.391 . S
C265 H253 0.950 . S
C265 C261 1.393 . S
C265 C264 1.391 . S
C266 H256 0.950 . S
C266 C267 1.386 . S
C266 C268 1.391 . S
C267 C266 1.386 . S
C267 C271 1.393 1_455 S
C268 H257 0.950 . S
C268 C266 1.391 . S
C268 C269 1.400 . S
C269 C263 1.491 . S
C269 C268 1.400 . S
C269 C270 1.398 1_455 S
C270 H258 0.950 . S
C270 C269 1.398 1_655 S
C270 C271 1.391 . S
C271 H259 0.950 . S
C271 C267 1.393 1_655 S
C271 C270 1.391 . S
H272 C280 0.950 . S
H273 C285 0.950 . S
H274 C282 0.950 . S
H275 C284 0.950 . S
H276 C286 0.950 . S
H277 C288 0.950 . S
H278 C290 0.950 . S
H279 C291 0.950 . S
C280 H272 0.950 . S
C280 C281 1.386 . S
C280 C282 1.391 . S
C281 C280 1.386 . S
C281 C285 1.393 . S
C282 H274 0.950 . S
C282 C280 1.391 . S
C282 C283 1.400 . S
C283 C282 1.400 . S
C283 C284 1.398 . S
C283 C289 1.491 . S
C284 H275 0.950 . S
C284 C283 1.398 . S
C284 C285 1.391 . S
C285 H273 0.950 . S
C285 C281 1.393 . S
C285 C284 1.391 . S
C286 H276 0.950 . S
C286 C287 1.386 . S
C286 C288 1.391 . S
C287 C286 1.386 . S
C287 C291 1.393 . S
C288 H277 0.950 . S
C288 C286 1.391 . S
C288 C289 1.400 . S
C289 C283 1.491 . S
C289 C288 1.400 . S
C289 C290 1.398 . S
C290 H278 0.950 . S
C290 C289 1.398 . S
C290 C291 1.391 . S
C291 H279 0.950 . S
C291 C287 1.393 . S
C291 C290 1.391 . S
H292 C300 0.950 . S
H293 C305 0.950 . S
H294 C302 0.950 . S
H295 C304 0.950 . S
H296 C306 0.950 . S
H297 C308 0.950 . S
H298 C310 0.950 . S
H299 C311 0.950 . S
C300 H292 0.950 . S
C300 C301 1.386 . S
C300 C302 1.391 . S
C301 C300 1.386 . S
C301 C305 1.393 . S
C302 H294 0.950 . S
C302 C300 1.391 . S
C302 C303 1.400 . S
C303 C302 1.400 . S
C303 C304 1.398 . S
C303 C309 1.491 . S
C304 H295 0.950 . S
C304 C303 1.398 . S
C304 C305 1.391 . S
C305 H293 0.950 . S
C305 C301 1.393 . S
C305 C304 1.391 . S
C306 H296 0.950 . S
C306 C307 1.386 . S
C306 C308 1.391 . S
C307 C306 1.386 . S
C307 C311 1.393 . S
C308 H297 0.950 . S
C308 C306 1.391 . S
C308 C309 1.400 . S
C309 C303 1.491 . S
C309 C308 1.400 . S
C309 C310 1.398 . S
C310 H298 0.950 . S
C310 C309 1.398 . S
C310 C311 1.391 . S
C311 H299 0.950 . S
C311 C307 1.393 . S
C311 C310 1.391 . S
H312 C320 0.950 . S
H313 C325 0.950 . S
H314 C322 0.950 . S
H315 C324 0.950 . S
H316 C326 0.950 . S
H317 C328 0.950 . S
H318 C330 0.950 . S
H319 C331 0.950 . S
C320 H312 0.950 . S
C320 C321 1.386 . S
C320 C322 1.391 . S
C321 C320 1.386 . S
C321 C325 1.393 . S
C322 H314 0.950 . S
C322 C320 1.391 . S
C322 C323 1.400 . S
C323 C322 1.400 . S
C323 C324 1.398 . S
C323 C329 1.491 . S
C324 H315 0.950 . S
C324 C323 1.398 . S
C324 C325 1.391 . S
C325 H313 0.950 . S
C325 C321 1.393 . S
C325 C324 1.391 . S
C326 H316 0.950 . S
C326 C327 1.386 . S
C326 C328 1.391 . S
C327 C326 1.386 . S
C327 C331 1.393 . S
C328 H317 0.950 . S
C328 C326 1.391 . S
C328 C329 1.400 . S
C329 C323 1.491 . S
C329 C328 1.400 . S
C329 C330 1.398 . S
C330 H318 0.950 . S
C330 C329 1.398 . S
C330 C331 1.391 . S
C331 H319 0.950 . S
C331 C327 1.393 . S
C331 C330 1.391 . S
H332 C340 0.950 . S
H333 C345 0.950 . S
H334 C342 0.950 . S
H335 C344 0.950 . S
H336 C346 0.950 . S
H337 C348 0.950 . S
H338 C350 0.950 . S
H339 C351 0.950 . S
C340 H332 0.950 . S
C340 C341 1.386 . S
C340 C342 1.391 . S
C341 C340 1.386 . S
C341 C345 1.393 . S
C342 H334 0.950 . S
C342 C340 1.391 . S
C342 C343 1.400 . S
C343 C342 1.400 . S
C343 C344 1.398 . S
C343 C349 1.491 . S
C344 H335 0.950 . S
C344 C343 1.398 . S
C344 C345 1.391 . S
C345 H333 0.950 . S
C345 C341 1.393 . S
C345 C344 1.391 . S
C346 H336 0.950 . S
C346 C347 1.386 . S
C346 C348 1.391 . S
C347 C346 1.386 . S
C347 C351 1.393 . S
C348 H337 0.950 . S
C348 C346 1.391 . S
C348 C349 1.400 . S
C349 C343 1.491 . S
C349 C348 1.400 . S
C349 C350 1.398 . S
C350 H338 0.950 . S
C350 C349 1.398 . S
C350 C351 1.391 . S
C351 H339 0.950 . S
C351 C347 1.393 . S
C351 C350 1.391 . S
H352 C360 0.950 . S
H353 C365 0.950 . S
H354 C362 0.950 . S
H355 C364 0.950 . S
H356 C366 0.950 . S
H357 C368 0.950 . S
H358 C370 0.950 . S
H359 C371 0.950 . S
C360 H352 0.950 . S
C360 C361 1.386 . S
C360 C362 1.391 . S
C361 C360 1.386 . S
C361 C365 1.393 . S
C362 H354 0.950 . S
C362 C360 1.391 . S
C362 C363 1.400 . S
C363 C362 1.400 . S
C363 C364 1.398 . S
C363 C369 1.491 . S
C364 H355 0.950 . S
C364 C363 1.398 . S
C364 C365 1.391 . S
C365 H353 0.950 . S
C365 C361 1.393 . S
C365 C364 1.391 . S
C366 H356 0.950 . S
C366 C367 1.386 . S
C366 C368 1.391 . S
C367 C366 1.386 . S
C367 C371 1.393 . S
C368 H357 0.950 . S
C368 C366 1.391 . S
C368 C369 1.400 . S
C369 C363 1.491 . S
C369 C368 1.400 . S
C369 C370 1.398 . S
C370 H358 0.950 . S
C370 C369 1.398 . S
C370 C371 1.391 . S
C371 H359 0.950 . S
C371 C367 1.393 . S
C371 C370 1.391 . S
H372 C380 0.950 . S
H373 C385 0.950 . S
H374 C382 0.950 . S
H375 C384 0.950 . S
H376 C386 0.950 . S
H377 C388 0.950 . S
H378 C390 0.950 . S
H379 C391 0.950 . S
C380 H372 0.950 . S
C380 C381 1.386 . S
C380 C382 1.391 . S
C381 C380 1.386 . S
C381 C385 1.393 . S
C382 H374 0.950 . S
C382 C380 1.391 . S
C382 C383 1.400 . S
C383 C382 1.400 . S
C383 C384 1.398 . S
C383 C389 1.491 . S
C384 H375 0.950 . S
C384 C383 1.398 . S
C384 C385 1.391 . S
C385 H373 0.950 . S
C385 C381 1.393 . S
C385 C384 1.391 . S
C386 H376 0.950 . S
C386 C387 1.386 . S
C386 C388 1.391 . S
C387 C386 1.386 . S
C387 C391 1.393 . S
C388 H377 0.950 . S
C388 C386 1.391 . S
C388 C389 1.400 . S
C389 C383 1.491 . S
C389 C388 1.400 . S
C389 C390 1.398 . S
C390 H378 0.950 . S
C390 C389 1.398 . S
C390 C391 1.391 . S
C391 H379 0.950 . S
C391 C387 1.393 . S
C391 C390 1.391 . S
H392 C400 0.950 . S
H393 C405 0.950 . S
H394 C402 0.950 . S
H395 C404 0.950 . S
H396 C406 0.950 . S
H397 C408 0.950 . S
H398 C410 0.950 . S
H399 C411 0.950 . S
C400 H392 0.950 . S
C400 C401 1.386 . S
C400 C402 1.391 . S
C401 C400 1.386 . S
C401 C405 1.393 . S
C402 H394 0.950 . S
C402 C400 1.391 . S
C402 C403 1.400 . S
C403 C402 1.400 . S
C403 C404 1.398 . S
C403 C409 1.491 . S
C404 H395 0.950 . S
C404 C403 1.398 . S
C404 C405 1.391 . S
C405 H393 0.950 . S
C405 C401 1.393 . S
C405 C404 1.391 . S
C406 H396 0.950 . S
C406 C407 1.386 . S
C406 C408 1.391 . S
C407 C406 1.386 . S
C407 C411 1.393 . S
C408 H397 0.950 . S
C408 C406 1.391 . S
C408 C409 1.400 . S
C409 C403 1.491 . S
C409 C408 1.400 . S
C409 C410 1.398 . S
C410 H398 0.950 . S
C410 C409 1.398 . S
C410 C411 1.391 . S
C411 H399 0.950 . S
C411 C407 1.393 . S
C411 C410 1.391 . S
H412 C420 0.950 . S
H413 C425 0.950 . S
H414 C422 0.950 . S
H415 C424 0.950 . S
H416 C426 0.950 . S
H417 C428 0.950 . S
H418 C430 0.950 . S
H419 C431 0.950 . S
C420 H412 0.950 . S
C420 C421 1.386 . S
C420 C422 1.391 . S
C421 C420 1.386 . S
C421 C425 1.393 . S
C422 H414 0.950 . S
C422 C420 1.391 . S
C422 C423 1.400 . S
C423 C422 1.400 . S
C423 C424 1.398 . S
C423 C429 1.491 . S
C424 H415 0.950 . S
C424 C423 1.398 . S
C424 C425 1.391 . S
C425 H413 0.950 . S
C425 C421 1.393 . S
C425 C424 1.391 . S
C426 H416 0.950 . S
C426 C427 1.386 . S
C426 C428 1.391 . S
C427 C426 1.386 . S
C427 C431 1.393 . S
C428 H417 0.950 . S
C428 C426 1.391 . S
C428 C429 1.400 . S
C429 C423 1.491 . S
C429 C428 1.400 . S
C429 C430 1.398 . S
C430 H418 0.950 . S
C430 C429 1.398 . S
C430 C431 1.391 . S
C431 H419 0.950 . S
C431 C427 1.393 . S
C431 C430 1.391 . S
C121 C4 1.499 . S
C127 C60 1.503 . S
C141 C26 1.585 . S
C147 C82 1.586 . S
C161 C88 1.503 . S
C167 C32 1.499 . S
C181 C110 1.585 . S
C187 C54 1.586 . S
C201 C5 0.978 . S
C207 C33 1.036 . S
C221 C25 0.955 . S
C227 C53 0.977 . S
C241 C89 0.981 . S
C247 C61 1.033 . S
C261 C81 0.938 . S
C267 C109 0.969 . S
C281 C75 0.973 . S
C287 C11 1.077 . S
C301 C19 1.001 . S
C307 C95 1.094 . S
C321 C103 0.980 . S
C327 C39 1.082 . S
C341 C47 1.012 . S
C347 C67 1.100 . S
C361 C96 1.443 . S
C367 C46 1.437 . S
C381 C12 1.450 . S
C387 C102 1.440 . S
C401 C18 1.436 . S
C407 C68 1.451 . S
C421 C74 1.425 . S
C427 C40 1.438 . S
