# Generated by pormake.
# Topology dft, (4)-cn, num edge types: 1
# Building blocks:
#     Node 0, Type 0, BuildingBlock: CEKHIL_clean_sbu_0, # of connection points: 4
#     Node 1, Type 0, BuildingBlock: CEKHIL_clean_sbu_0, # of connection points: 4
#     Node 2, Type 0, BuildingBlock: CEKHIL_clean_sbu_0, # of connection points: 4
#     Node 3, Type 0, BuildingBlock: CEKHIL_clean_sbu_0, # of connection points: 4
#     Node 4, Type 0, BuildingBlock: CEKHIL_clean_sbu_0, # of connection points: 4
#     Node 5, Type 0, BuildingBlock: CEKHIL_clean_sbu_0, # of connection points: 4
#     Node 6, Type 0, BuildingBlock: CEKHIL_clean_sbu_0, # of connection points: 4
#     Node 7, Type 0, BuildingBlock: CEKHIL_clean_sbu_0, # of connection points: 4
#     Edge 8, Type (0, 0), BuildingBlock: KIFKEQ_clean_linker_1, # of connection points: 2
#     Edge 9, Type (0, 0), BuildingBlock: KIFKEQ_clean_linker_1, # of connection points: 2
#     Edge 10, Type (0, 0), BuildingBlock: KIFKEQ_clean_linker_1, # of connection points: 2
#     Edge 11, Type (0, 0), BuildingBlock: KIFKEQ_clean_linker_1, # of connection points: 2
#     Edge 12, Type (0, 0), BuildingBlock: KIFKEQ_clean_linker_1, # of connection points: 2
#     Edge 13, Type (0, 0), BuildingBlock: KIFKEQ_clean_linker_1, # of connection points: 2
#     Edge 14, Type (0, 0), BuildingBlock: KIFKEQ_clean_linker_1, # of connection points: 2
#     Edge 15, Type (0, 0), BuildingBlock: KIFKEQ_clean_linker_1, # of connection points: 2
#     Edge 16, Type (0, 0), BuildingBlock: KIFKEQ_clean_linker_1, # of connection points: 2
#     Edge 17, Type (0, 0), BuildingBlock: KIFKEQ_clean_linker_1, # of connection points: 2
#     Edge 18, Type (0, 0), BuildingBlock: KIFKEQ_clean_linker_1, # of connection points: 2
#     Edge 19, Type (0, 0), BuildingBlock: KIFKEQ_clean_linker_1, # of connection points: 2
#     Edge 20, Type (0, 0), BuildingBlock: KIFKEQ_clean_linker_1, # of connection points: 2
#     Edge 21, Type (0, 0), BuildingBlock: KIFKEQ_clean_linker_1, # of connection points: 2
#     Edge 22, Type (0, 0), BuildingBlock: KIFKEQ_clean_linker_1, # of connection points: 2
#     Edge 23, Type (0, 0), BuildingBlock: KIFKEQ_clean_linker_1, # of connection points: 2
# Relax obj value: 0.182
# Max RMSD: 0.171
# Mean RMSD: 0.171
data_MOF--net-dft--node1-CEKHIL_clean_sbu_0--edge1-KIFKEQ_clean_linker_1
_symmetry_space_group_name_H-M    P1
_symmetry_Int_Tables_number       1
_symmetry_cell_setting            triclinic
loop_
_symmetry_equiv_pos_as_xyz
'x, y, z'
_cell_length_a     34.440126
_cell_length_b     34.422217
_cell_length_c     41.560449
_cell_angle_alpha  90.089925
_cell_angle_beta   90.160174
_cell_angle_gamma 90.028226
loop_
_atom_site_label
_atom_site_type_symbol
_atom_site_fract_x
_atom_site_fract_y
_atom_site_fract_z
_atom_type_partial_charge
Co0 Co 0.343 0.04406 0.17961 0.0
O1 O 0.39112 0.01551 0.17994 0.0
O2 O 0.38524 0.07802 0.19169 0.0
C3 C 0.30717 0.99944 0.20556 0.0
O4 O 0.29837 0.08321 0.18374 0.0
Co5 Co 0.26991 0.01264 0.14386 0.0
O6 O 0.24307 0.05662 0.16495 0.0
C7 C 0.3399 0.03492 0.10826 0.0
C8 C 0.40769 0.04794 0.18824 0.0
C9 C 0.26128 0.08395 0.17921 0.0
O10 O 0.35128 0.0556 0.13239 0.0
O11 O 0.31044 0.01235 0.10956 0.0
O12 O 0.32922 0.02297 0.22202 0.0
O13 O 0.3104 0.00156 0.1748 0.0
Co14 Co 0.06864 0.34267 0.67959 0.0
O15 O 0.09588 0.39081 0.67228 0.0
O16 O 0.03771 0.38593 0.69444 0.0
C17 C 0.11996 0.31028 0.69981 0.0
O18 O 0.03185 0.29844 0.69296 0.0
Co19 Co 0.09189 0.26507 0.64612 0.0
O20 O 0.05957 0.24145 0.68003 0.0
C21 C 0.05304 0.32737 0.6092 0.0
C22 C 0.06607 0.40806 0.68496 0.0
C23 C 0.03383 0.26105 0.69483 0.0
O24 O 0.04544 0.34663 0.635 0.0
O25 O 0.0729 0.29598 0.6087 0.0
O26 O 0.09989 0.33327 0.71828 0.0
O27 O 0.11003 0.30983 0.66994 0.0
Co28 Co 0.76445 0.07238 0.18103 0.0
O29 O 0.71634 0.1009 0.17922 0.0
O30 O 0.72209 0.03961 0.19464 0.0
C31 C 0.79953 0.11969 0.20455 0.0
O32 O 0.80861 0.03356 0.18796 0.0
Co33 Co 0.83883 0.09955 0.14547 0.0
O34 O 0.86486 0.05567 0.1676 0.0
C35 C 0.76901 0.07521 0.10973 0.0
C36 C 0.69968 0.06929 0.18921 0.0
C37 C 0.84549 0.0306 0.18339 0.0
O38 O 0.75669 0.05673 0.13461 0.0
O39 O 0.7988 0.09743 0.11049 0.0
O40 O 0.77806 0.09702 0.22218 0.0
O41 O 0.79702 0.11453 0.17398 0.0
Co42 Co 0.04846 0.76621 0.6807 0.0
O43 O 0.02091 0.718 0.67461 0.0
O44 O 0.08005 0.72319 0.69517 0.0
C45 C 0.99794 0.79901 0.70172 0.0
O46 O 0.08579 0.81072 0.69247 0.0
Co47 Co 0.02367 0.84339 0.64733 0.0
O48 O 0.05543 0.86711 0.68187 0.0
C49 C 0.06126 0.78055 0.60994 0.0
C50 C 0.05131 0.70092 0.68655 0.0
C51 C 0.08249 0.84791 0.69542 0.0
O52 O 0.06963 0.76141 0.63562 0.0
O53 O 0.04164 0.8121 0.60971 0.0
O54 O 0.01885 0.77659 0.72006 0.0
O55 O 0.00673 0.79874 0.67166 0.0
Co56 Co 0.34971 0.07165 0.80955 0.0
O57 O 0.39859 0.09864 0.8123 0.0
O58 O 0.39151 0.03739 0.797 0.0
C59 C 0.31689 0.11988 0.78499 0.0
O60 O 0.30404 0.03429 0.80202 0.0
Co61 Co 0.27541 0.10299 0.84347 0.0
O62 O 0.2487 0.06533 0.8149 0.0
C63 C 0.34257 0.07484 0.88098 0.0
C64 C 0.41462 0.06651 0.80274 0.0
C65 C 0.26667 0.03709 0.80182 0.0
O66 O 0.35547 0.05632 0.85626 0.0
O67 O 0.31335 0.09776 0.87973 0.0
O68 O 0.33842 0.09658 0.76795 0.0
O69 O 0.31851 0.11488 0.81559 0.0
Co70 Co 0.04492 0.34674 0.30812 0.0
O71 O 0.01794 0.39531 0.3133 0.0
O72 O 0.07756 0.38922 0.29416 0.0
C73 C 0.99456 0.31458 0.28604 0.0
O74 O 0.08173 0.30163 0.29737 0.0
Co75 Co 0.01758 0.27067 0.3417 0.0
O76 O 0.05196 0.24555 0.30982 0.0
C77 C 0.05505 0.33336 0.37936 0.0
C78 C 0.04889 0.4119 0.30202 0.0
C79 C 0.07908 0.26425 0.29594 0.0
O80 O 0.06499 0.35164 0.35368 0.0
O81 O 0.03439 0.30247 0.37947 0.0
O82 O 0.01654 0.33628 0.26804 0.0
O83 O 0.00225 0.3151 0.31633 0.0
Co84 Co 0.77142 0.04051 0.81205 0.0
O85 O 0.72344 0.0116 0.81196 0.0
O86 O 0.72897 0.07391 0.79959 0.0
C87 C 0.80757 0.99566 0.7866 0.0
O88 O 0.81577 0.07997 0.80762 0.0
Co89 Co 0.84466 0.01036 0.84824 0.0
O90 O 0.87114 0.05463 0.8273 0.0
C91 C 0.77439 0.0328 0.88347 0.0
C92 C 0.70668 0.04376 0.80335 0.0
C93 C 0.85275 0.08142 0.8126 0.0
O94 O 0.76297 0.0529 0.85909 0.0
O95 O 0.80402 0.01043 0.88247 0.0
O96 O 0.78536 0.0187 0.76989 0.0
O97 O 0.80435 0.99833 0.81734 0.0
Co98 Co 0.06565 0.76976 0.31054 0.0
O99 O 0.09441 0.72215 0.31633 0.0
O100 O 0.03561 0.7263 0.29491 0.0
C101 C 0.11519 0.80481 0.29063 0.0
O102 O 0.02731 0.8131 0.29866 0.0
Co103 Co 0.087 0.84668 0.34617 0.0
O104 O 0.04737 0.87078 0.31821 0.0
C105 C 0.0522 0.78104 0.38152 0.0
C106 C 0.06466 0.70459 0.30363 0.0
C107 C 0.02414 0.85032 0.30136 0.0
O108 O 0.04352 0.76333 0.35517 0.0
O109 O 0.07177 0.81258 0.3828 0.0
O110 O 0.09556 0.78171 0.27182 0.0
O111 O 0.10614 0.8037 0.32064 0.0
H112 H 0.33993 0.98122 0.06062 0.0
H113 H 0.38464 0.09487 0.08485 0.0
H114 H 0.3585 0.99043 0.00519 0.0
H115 H 0.40464 0.10382 0.02883 0.0
H116 H 0.34448 0.12742 0.92919 0.0
H117 H 0.36193 0.11661 0.98474 0.0
H118 H 0.4014 1.00089 0.96083 0.0
H119 H 0.38268 0.01168 0.90456 0.0
C120 C 0.35465 0.00792 0.05419 0.0
C121 C 0.35958 0.03794 0.07682 0.0
C122 C 0.36592 0.01296 0.02236 0.0
C123 C 0.38245 0.04817 0.01232 0.0
C124 C 0.39123 0.07661 0.03571 0.0
C125 C 0.37988 0.07152 0.06778 0.0
C126 C 0.35749 0.09983 0.93561 0.0
C127 C 0.36107 0.06991 0.91279 0.0
C128 C 0.36815 0.09384 0.96751 0.0
C129 C 0.38261 0.05767 0.97746 0.0
C130 C 0.38973 0.02891 0.95398 0.0
C131 C 0.37911 0.03503 0.9218 0.0
H132 H 0.01355 0.28992 0.56271 0.0
H133 H 0.07138 0.39812 0.58424 0.0
H134 H 0.01759 0.30408 0.50535 0.0
H135 H 0.07593 0.41216 0.52626 0.0
H136 H 0.02842 0.39971 0.40694 0.0
H137 H 0.02348 0.41017 0.46541 0.0
H138 H 0.09644 0.31021 0.4815 0.0
H139 H 0.10082 0.29952 0.42356 0.0
C140 C 0.02551 0.31756 0.55513 0.0
C141 C 0.04207 0.34298 0.57766 0.0
C142 C 0.02814 0.32549 0.52241 0.0
C143 C 0.0477 0.35879 0.51169 0.0
C144 C 0.06075 0.38633 0.53417 0.0
C145 C 0.05783 0.37846 0.56719 0.0
C146 C 0.04503 0.38136 0.42306 0.0
C147 C 0.06521 0.34897 0.41106 0.0
C148 C 0.04194 0.38717 0.45636 0.0
C149 C 0.05916 0.36062 0.47761 0.0
C150 C 0.08279 0.33088 0.46539 0.0
C151 C 0.08562 0.32495 0.43235 0.0
H152 H 0.72832 0.09239 0.90576 0.0
H153 H 0.77498 0.98028 0.93187 0.0
H154 H 0.70708 0.10204 0.96141 0.0
H155 H 0.7551 0.99017 0.98692 0.0
H156 H 0.72887 0.01187 0.08656 0.0
H157 H 0.71057 1.00038 0.0303 0.0
H158 H 0.74859 0.11647 0.00618 0.0
H159 H 0.76566 0.12795 0.0618 0.0
C160 C 0.73327 0.06952 0.92316 0.0
C161 C 0.75442 0.03619 0.91475 0.0
C162 C 0.72119 0.075 0.95501 0.0
C163 C 0.73002 0.04719 0.97881 0.0
C164 C 0.74756 0.01219 0.9694 0.0
C165 C 0.7596 0.00678 0.93779 0.0
C166 C 0.73208 0.03519 0.0693 0.0
C167 C 0.74975 0.07033 0.07824 0.0
C168 C 0.72173 0.02865 0.03711 0.0
C169 C 0.7288 0.05725 0.01357 0.0
C170 C 0.74252 0.09378 0.02347 0.0
C171 C 0.75292 0.10019 0.0554 0.0
H172 H 0.07892 0.71312 0.40618 0.0
H173 H 0.00717 0.81253 0.42731 0.0
H174 H 0.08534 0.69988 0.46414 0.0
H175 H 0.01296 0.799 0.48474 0.0
H176 H 0.10208 0.81586 0.56335 0.0
H177 H 0.09592 0.80224 0.50593 0.0
H178 H 0.03149 0.69789 0.52692 0.0
H179 H 0.0383 0.71124 0.58489 0.0
C180 C 0.0627 0.73066 0.42313 0.0
C181 C 0.0424 0.76371 0.41259 0.0
C182 C 0.06663 0.72326 0.45615 0.0
C183 C 0.04998 0.74876 0.47854 0.0
C184 C 0.02606 0.77907 0.46772 0.0
C185 C 0.02247 0.78662 0.43497 0.0
C186 C 0.0884 0.78899 0.55574 0.0
C187 C 0.07084 0.76448 0.57829 0.0
C188 C 0.08459 0.78137 0.523 0.0
C189 C 0.0628 0.74937 0.51234 0.0
C190 C 0.04852 0.72261 0.5348 0.0
C191 C 0.0527 0.73009 0.56781 0.0
H192 H 0.46152 0.99148 0.17696 0.0
H193 H 0.45026 0.11069 0.20814 0.0
H194 H 0.5319 0.997 0.17989 0.0
H195 H 0.52079 0.11596 0.21201 0.0
H196 H 0.64595 0.12458 0.17416 0.0
H197 H 0.57555 0.11925 0.17663 0.0
H198 H 0.58639 0.00338 0.21555 0.0
H199 H 0.65695 0.00837 0.21217 0.0
C200 C 0.47408 0.01875 0.18483 0.0
C201 C 0.45032 0.05071 0.19216 0.0
C202 C 0.51448 0.02185 0.18672 0.0
C203 C 0.53212 0.05696 0.19613 0.0
C204 C 0.50824 0.08867 0.20419 0.0
C205 C 0.46779 0.0856 0.20216 0.0
C206 C 0.63332 0.09804 0.18344 0.0
C207 C 0.65702 0.06682 0.19283 0.0
C208 C 0.59291 0.09507 0.18505 0.0
C209 C 0.5752 0.06085 0.19624 0.0
C210 C 0.59901 0.02994 0.20634 0.0
C211 C 0.63947 0.03287 0.20459 0.0
H212 H 0.12179 0.4606 0.66815 0.0
H213 H 0.0065 0.45243 0.70827 0.0
H214 H 0.11825 0.53126 0.67088 0.0
H215 H 0.00317 0.52321 0.71142 0.0
H216 H 0.9945 0.64843 0.67215 0.0
H217 H 0.99838 0.57781 0.67397 0.0
H218 H 0.11633 0.58565 0.70904 0.0
H219 H 0.11261 0.65651 0.7068 0.0
C220 C 0.09578 0.47388 0.67776 0.0
C221 C 0.06435 0.45091 0.68785 0.0
C222 C 0.09386 0.5144 0.67953 0.0
C223 C 0.06041 0.53291 0.69133 0.0
C224 C 0.02917 0.50987 0.70184 0.0
C225 C 0.03115 0.46932 0.70017 0.0
C226 C 0.02122 0.63513 0.6804 0.0
C227 C 0.0533 0.65808 0.68922 0.0
C228 C 0.02335 0.59462 0.68164 0.0
C229 C 0.05767 0.57606 0.69162 0.0
C230 C 0.08961 0.59904 0.70088 0.0
C231 C 0.08742 0.63963 0.69976 0.0
H232 H 0.66388 0.10605 0.78317 0.0
H233 H 0.65298 0.9872 0.8151 0.0
H234 H 0.59336 0.11117 0.77969 0.0
H235 H 0.58252 0.99259 0.81253 0.0
H236 H 0.45672 0.00447 0.78068 0.0
H237 H 0.5273 0.99872 0.77738 0.0
H238 H 0.53931 0.11494 0.81565 0.0
H239 H 0.46905 0.12099 0.81806 0.0
C240 C 0.64642 0.08099 0.78939 0.0
C241 C 0.66401 0.04628 0.79952 0.0
C242 C 0.60598 0.08398 0.78759 0.0
C243 C 0.58216 0.05237 0.79602 0.0
C244 C 0.59989 0.01737 0.80547 0.0
C245 C 0.64033 0.01435 0.80714 0.0
C246 C 0.47449 0.02884 0.78818 0.0
C247 C 0.4573 0.06316 0.79965 0.0
C248 C 0.51494 0.02549 0.78646 0.0
C249 C 0.53908 0.05636 0.79628 0.0
C250 C 0.52172 0.09081 0.80739 0.0
C251 C 0.48136 0.09419 0.80898 0.0
H252 H 0.99237 0.46492 0.31514 0.0
H253 H 0.11117 0.45569 0.28291 0.0
H254 H 0.99694 0.53543 0.31321 0.0
H255 H 0.11557 0.52654 0.28051 0.0
H256 H 0.00591 0.66013 0.27897 0.0
H257 H 0.00271 0.58943 0.27569 0.0
H258 H 0.11708 0.58152 0.31811 0.0
H259 H 0.12054 0.65223 0.32091 0.0
C260 C 0.0194 0.47795 0.30739 0.0
C261 C 0.05146 0.4547 0.29926 0.0
C262 C 0.02193 0.51842 0.30609 0.0
C263 C 0.05661 0.53666 0.29669 0.0
C264 C 0.08857 0.51339 0.28818 0.0
C265 C 0.08599 0.47282 0.28939 0.0
C266 C 0.03046 0.64331 0.28741 0.0
C267 C 0.06342 0.66178 0.3003 0.0
C268 C 0.02855 0.60278 0.28568 0.0
C269 C 0.05957 0.57979 0.29676 0.0
C270 C 0.09286 0.59835 0.30903 0.0
C271 C 0.09474 0.63888 0.31081 0.0
H272 H 0.15036 0.28775 0.27227 0.0
H273 H 0.0736 0.18857 0.27762 0.0
H274 H 0.19708 0.24845 0.24162 0.0
H275 H 0.11975 0.15002 0.24751 0.0
H276 H 0.18598 0.1017 0.16524 0.0
H277 H 0.14445 0.14902 0.19143 0.0
H278 H 0.24096 0.1879 0.24961 0.0
H279 H 0.28319 0.1403 0.22305 0.0
C280 C 0.14341 0.25773 0.26694 0.0
C281 C 0.10816 0.2414 0.27747 0.0
C282 C 0.17022 0.23523 0.24954 0.0
C283 C 0.16193 0.19624 0.24191 0.0
C284 C 0.12679 0.18011 0.25253 0.0
C285 C 0.10039 0.20226 0.27007 0.0
C286 C 0.19868 0.12049 0.18337 0.0
C287 C 0.23791 0.11667 0.19234 0.0
C288 C 0.17474 0.14763 0.19844 0.0
C289 C 0.18924 0.17175 0.22297 0.0
C290 C 0.22897 0.16971 0.23075 0.0
C291 C 0.25311 0.14238 0.21558 0.0
H292 H 0.96213 0.2847 0.71761 0.0
H293 H 0.04106 0.18713 0.71667 0.0
H294 H 0.91555 0.24592 0.74889 0.0
H295 H 0.99513 0.14908 0.74735 0.0
H296 H 0.92701 0.10143 0.82828 0.0
H297 H 0.96837 0.14923 0.80257 0.0
H298 H 0.87324 0.18423 0.74135 0.0
H299 H 0.83117 0.1362 0.76747 0.0
C300 C 0.96963 0.25519 0.72415 0.0
C301 C 0.00534 0.23906 0.71455 0.0
C302 C 0.94291 0.23297 0.74188 0.0
C303 C 0.95178 0.19453 0.75078 0.0
C304 C 0.98757 0.17875 0.74133 0.0
C305 C 0.01386 0.20059 0.72346 0.0
C306 C 0.91457 0.11949 0.80959 0.0
C307 C 0.87582 0.11443 0.79964 0.0
C308 C 0.9384 0.14691 0.79481 0.0
C309 C 0.92429 0.17007 0.76956 0.0
C310 C 0.88493 0.16684 0.76079 0.0
C311 C 0.86088 0.13924 0.7757 0.0
H312 H 0.98475 0.91405 0.32167 0.0
H313 H 0.99299 0.83369 0.24211 0.0
H314 H 0.93703 0.95228 0.29184 0.0
H315 H 0.94574 0.87287 0.21177 0.0
H316 H 0.91292 0.99682 0.163 0.0
H317 H 0.95161 0.94754 0.19087 0.0
H318 H 0.866 0.94239 0.26631 0.0
H319 H 0.82671 0.99099 0.23812 0.0
C320 C 0.97607 0.90439 0.29789 0.0
C321 C 0.99256 0.8709 0.28419 0.0
C322 C 0.94864 0.92617 0.28091 0.0
C323 C 0.93773 0.91547 0.24956 0.0
C324 C 0.95371 0.88166 0.23594 0.0
C325 C 0.98052 0.85922 0.25331 0.0
C326 C 0.90205 0.98471 0.18527 0.0
C327 C 0.86682 0.99788 0.19842 0.0
C328 C 0.92407 0.95637 0.20108 0.0
C329 C 0.91175 0.94124 0.2307 0.0
C330 C 0.87609 0.95362 0.24347 0.0
C331 C 0.8536 0.98131 0.22729 0.0
H332 H 0.16174 0.83789 0.69912 0.0
H333 H 0.06779 0.90877 0.73442 0.0
H334 H 0.20875 0.88193 0.72466 0.0
H335 H 0.11385 0.95116 0.76131 0.0
H336 H 0.19822 0.04781 0.7712 0.0
H337 H 0.15641 0.99975 0.74644 0.0
H338 H 0.23814 0.90938 0.77168 0.0
H339 H 0.28137 0.95864 0.79519 0.0
C340 C 0.1512 0.8624 0.71293 0.0
C341 C 0.11122 0.8703 0.71442 0.0
C342 C 0.17806 0.88764 0.72763 0.0
C343 C 0.16531 0.92085 0.74448 0.0
C344 C 0.12506 0.92692 0.74756 0.0
C345 C 0.0985 0.90235 0.73241 0.0
C346 C 0.20736 0.01769 0.77148 0.0
C347 C 0.24286 0.00696 0.78554 0.0
C348 C 0.18316 0.98991 0.75747 0.0
C349 C 0.19317 0.95027 0.75772 0.0
C350 C 0.22935 0.93956 0.77098 0.0
C351 C 0.25411 0.96772 0.78455 0.0
H352 H 0.80464 0.96057 0.72748 0.0
H353 H 0.87396 0.96951 0.81386 0.0
H354 H 0.84882 0.9107 0.70697 0.0
H355 H 0.91887 0.9217 0.79306 0.0
H356 H 0.97198 0.80764 0.76366 0.0
H357 H 0.92434 0.8546 0.78317 0.0
H358 H 0.91186 0.9003 0.68681 0.0
H359 H 0.95767 0.85247 0.66731 0.0
C360 C 0.82967 0.95235 0.74176 0.0
C361 C 0.8358 0.9687 0.77226 0.0
C362 C 0.85501 0.92384 0.7301 0.0
C363 C 0.88725 0.91178 0.74856 0.0
C364 C 0.89382 0.92931 0.77859 0.0
C365 C 0.86823 0.95712 0.7904 0.0
C366 C 0.95881 0.8276 0.74673 0.0
C367 C 0.96874 0.82652 0.71407 0.0
C368 C 0.93171 0.85471 0.75786 0.0
C369 C 0.91439 0.88151 0.73657 0.0
C370 C 0.92411 0.87989 0.70384 0.0
C371 C 0.95076 0.85262 0.69272 0.0
H372 H 0.24316 0.96957 0.17699 0.0
H373 H 0.30695 0.96909 0.26658 0.0
H374 H 0.19772 0.92289 0.19832 0.0
H375 H 0.26206 0.92023 0.28782 0.0
H376 H 0.15071 0.86225 0.32466 0.0
H377 H 0.19724 0.90981 0.30542 0.0
H378 H 0.1939 0.8565 0.21114 0.0
H379 H 0.14579 0.80994 0.23018 0.0
C380 C 0.24759 0.95932 0.2013 0.0
C381 C 0.27868 0.97292 0.22012 0.0
C382 C 0.22167 0.93213 0.21345 0.0
C383 C 0.22653 0.91718 0.24458 0.0
C384 C 0.2573 0.93132 0.26377 0.0
C385 C 0.28303 0.95923 0.25168 0.0
C386 C 0.15981 0.86075 0.29977 0.0
C387 C 0.14429 0.83266 0.27876 0.0
C388 C 0.18681 0.88784 0.28883 0.0
C389 C 0.19923 0.8872 0.2567 0.0
C390 C 0.18435 0.8584 0.23589 0.0
C391 C 0.15694 0.83156 0.24677 0.0
H392 H 0.15681 0.31236 0.75816 0.0
H393 H 0.15217 0.24905 0.66843 0.0
H394 H 0.20759 0.26868 0.77736 0.0
H395 H 0.20094 0.20418 0.68808 0.0
H396 H 0.31163 0.14564 0.72249 0.0
H397 H 0.2666 0.19447 0.70139 0.0
H398 H 0.21466 0.20524 0.79564 0.0
H399 H 0.26053 0.1589 0.81668 0.0
C400 C 0.16638 0.28888 0.74271 0.0
C401 C 0.15034 0.28394 0.71197 0.0
C402 C 0.19535 0.2637 0.75369 0.0
C403 C 0.2083 0.23261 0.73434 0.0
C404 C 0.19228 0.22804 0.70347 0.0
C405 C 0.1639 0.25358 0.69233 0.0
C406 C 0.2906 0.15866 0.73855 0.0
C407 C 0.28959 0.14836 0.77116 0.0
C408 C 0.26468 0.1865 0.72652 0.0
C409 C 0.23699 0.20405 0.74685 0.0
C410 C 0.23604 0.19324 0.77937 0.0
C411 C 0.26218 0.16611 0.79139 0.0
H412 H 0.987 0.28625 0.2247 0.0
H413 H 0.9352 0.28267 0.31912 0.0
H414 H 0.93975 0.23841 0.20569 0.0
H415 H 0.88699 0.23655 0.30003 0.0
H416 H 0.83111 0.12392 0.26516 0.0
H417 H 0.87878 0.17131 0.2845 0.0
H418 H 0.87403 0.22996 0.19257 0.0
H419 H 0.82827 0.18178 0.17309 0.0
C420 C 0.96512 0.27566 0.24118 0.0
C421 C 0.96472 0.28804 0.2733 0.0
C422 C 0.93795 0.24834 0.23037 0.0
C423 C 0.90952 0.23342 0.25138 0.0
C424 C 0.90887 0.24663 0.28335 0.0
C425 C 0.93632 0.27338 0.29422 0.0
C426 C 0.8403 0.14707 0.24929 0.0
C427 C 0.82624 0.14913 0.21767 0.0
C428 C 0.86747 0.17432 0.2603 0.0
C429 C 0.88051 0.20443 0.24 0.0
C430 C 0.86551 0.20674 0.20863 0.0
C431 C 0.83897 0.17927 0.19754 0.0
loop_
_geom_bond_atom_site_label_1
_geom_bond_atom_site_label_2
_geom_bond_distance
_geom_bond_site_symmetry_2
_ccdc_geom_bond_type
Co0 O1 2.216 . S
Co0 O2 2.091 . S
Co0 O4 2.004 . S
Co0 O10 2.021 . S
Co0 O12 2.137 . S
Co0 O13 2.244 1_545 S
O1 Co0 2.216 . S
O1 C8 1.247 . S
O2 Co0 2.091 . S
O2 C8 1.261 . S
C3 O12 1.247 1_565 S
C3 O13 1.272 . S
O4 Co0 2.004 . S
O4 C9 1.259 . S
Co5 O6 2.061 . S
Co5 O11 2.052 . S
Co5 O13 2.135 1_545 S
O6 Co5 2.061 . S
O6 C9 1.235 . S
C7 O10 1.238 . S
C7 O11 1.241 . S
C8 O1 1.247 . S
C8 O2 1.261 . S
C9 O4 1.259 . S
C9 O6 1.235 . S
O10 Co0 2.021 . S
O10 C7 1.238 . S
O11 Co5 2.052 . S
O11 C7 1.241 . S
O12 Co0 2.137 . S
O12 C3 1.247 1_545 S
O13 Co0 2.244 1_565 S
O13 C3 1.272 . S
O13 Co5 2.135 1_565 S
Co14 O15 2.216 . S
Co14 O16 2.091 . S
Co14 O18 2.004 . S
Co14 O24 2.021 . S
Co14 O26 2.137 . S
Co14 O27 2.244 . S
O15 Co14 2.216 . S
O15 C22 1.247 . S
O16 Co14 2.091 . S
O16 C22 1.261 . S
C17 O26 1.247 . S
C17 O27 1.272 . S
O18 Co14 2.004 . S
O18 C23 1.259 . S
Co19 O20 2.061 . S
Co19 O25 2.052 . S
Co19 O27 2.135 . S
O20 Co19 2.061 . S
O20 C23 1.235 . S
C21 O24 1.238 . S
C21 O25 1.241 . S
C22 O15 1.247 . S
C22 O16 1.261 . S
C23 O18 1.259 . S
C23 O20 1.235 . S
O24 Co14 2.021 . S
O24 C21 1.238 . S
O25 Co19 2.052 . S
O25 C21 1.241 . S
O26 Co14 2.137 . S
O26 C17 1.247 . S
O27 Co14 2.244 . S
O27 C17 1.272 . S
O27 Co19 2.135 . S
Co28 O29 2.216 . S
Co28 O30 2.091 . S
Co28 O32 2.004 . S
Co28 O38 2.021 . S
Co28 O40 2.137 . S
Co28 O41 2.244 . S
O29 Co28 2.216 . S
O29 C36 1.247 . S
O30 Co28 2.091 . S
O30 C36 1.261 . S
C31 O40 1.247 . S
C31 O41 1.272 . S
O32 Co28 2.004 . S
O32 C37 1.259 . S
Co33 O34 2.061 . S
Co33 O39 2.052 . S
Co33 O41 2.135 . S
O34 Co33 2.061 . S
O34 C37 1.235 . S
C35 O38 1.238 . S
C35 O39 1.241 . S
C36 O29 1.247 . S
C36 O30 1.261 . S
C37 O32 1.259 . S
C37 O34 1.235 . S
O38 Co28 2.021 . S
O38 C35 1.238 . S
O39 Co33 2.052 . S
O39 C35 1.241 . S
O40 Co28 2.137 . S
O40 C31 1.247 . S
O41 Co28 2.244 . S
O41 C31 1.272 . S
O41 Co33 2.135 . S
Co42 O43 2.216 . S
Co42 O44 2.091 . S
Co42 O46 2.004 . S
Co42 O52 2.021 . S
Co42 O54 2.137 . S
Co42 O55 2.244 1_455 S
O43 Co42 2.216 . S
O43 C50 1.247 . S
O44 Co42 2.091 . S
O44 C50 1.261 . S
C45 O54 1.247 1_655 S
C45 O55 1.272 . S
O46 Co42 2.004 . S
O46 C51 1.259 . S
Co47 O48 2.061 . S
Co47 O53 2.052 . S
Co47 O55 2.135 1_455 S
O48 Co47 2.061 . S
O48 C51 1.235 . S
C49 O52 1.238 . S
C49 O53 1.241 . S
C50 O43 1.247 . S
C50 O44 1.261 . S
C51 O46 1.259 . S
C51 O48 1.235 . S
O52 Co42 2.021 . S
O52 C49 1.238 . S
O53 Co47 2.052 . S
O53 C49 1.241 . S
O54 Co42 2.137 . S
O54 C45 1.247 1_455 S
O55 Co42 2.244 1_655 S
O55 C45 1.272 . S
O55 Co47 2.135 1_655 S
Co56 O57 2.216 . S
Co56 O58 2.091 . S
Co56 O60 2.004 . S
Co56 O66 2.021 . S
Co56 O68 2.137 . S
Co56 O69 2.244 . S
O57 Co56 2.216 . S
O57 C64 1.247 . S
O58 Co56 2.091 . S
O58 C64 1.261 . S
C59 O68 1.247 . S
C59 O69 1.272 . S
O60 Co56 2.004 . S
O60 C65 1.259 . S
Co61 O62 2.061 . S
Co61 O67 2.052 . S
Co61 O69 2.135 . S
O62 Co61 2.061 . S
O62 C65 1.235 . S
C63 O66 1.238 . S
C63 O67 1.241 . S
C64 O57 1.247 . S
C64 O58 1.261 . S
C65 O60 1.259 . S
C65 O62 1.235 . S
O66 Co56 2.021 . S
O66 C63 1.238 . S
O67 Co61 2.052 . S
O67 C63 1.241 . S
O68 Co56 2.137 . S
O68 C59 1.247 . S
O69 Co56 2.244 . S
O69 C59 1.272 . S
O69 Co61 2.135 . S
Co70 O71 2.216 . S
Co70 O72 2.091 . S
Co70 O74 2.004 . S
Co70 O80 2.021 . S
Co70 O82 2.137 . S
Co70 O83 2.244 1_455 S
O71 Co70 2.216 . S
O71 C78 1.247 . S
O72 Co70 2.091 . S
O72 C78 1.261 . S
C73 O82 1.247 1_655 S
C73 O83 1.272 . S
O74 Co70 2.004 . S
O74 C79 1.259 . S
Co75 O76 2.061 . S
Co75 O81 2.052 . S
Co75 O83 2.135 1_455 S
O76 Co75 2.061 . S
O76 C79 1.235 . S
C77 O80 1.238 . S
C77 O81 1.241 . S
C78 O71 1.247 . S
C78 O72 1.261 . S
C79 O74 1.259 . S
C79 O76 1.235 . S
O80 Co70 2.021 . S
O80 C77 1.238 . S
O81 Co75 2.052 . S
O81 C77 1.241 . S
O82 Co70 2.137 . S
O82 C73 1.247 1_455 S
O83 Co70 2.244 1_655 S
O83 C73 1.272 . S
O83 Co75 2.135 1_655 S
Co84 O85 2.216 . S
Co84 O86 2.091 . S
Co84 O88 2.004 . S
Co84 O94 2.021 . S
Co84 O96 2.137 . S
Co84 O97 2.244 1_545 S
O85 Co84 2.216 . S
O85 C92 1.247 . S
O86 Co84 2.091 . S
O86 C92 1.261 . S
C87 O96 1.247 1_565 S
C87 O97 1.272 . S
O88 Co84 2.004 . S
O88 C93 1.259 . S
Co89 O90 2.061 . S
Co89 O95 2.052 . S
Co89 O97 2.135 1_545 S
O90 Co89 2.061 . S
O90 C93 1.235 . S
C91 O94 1.238 . S
C91 O95 1.241 . S
C92 O85 1.247 . S
C92 O86 1.261 . S
C93 O88 1.259 . S
C93 O90 1.235 . S
O94 Co84 2.021 . S
O94 C91 1.238 . S
O95 Co89 2.052 . S
O95 C91 1.241 . S
O96 Co84 2.137 . S
O96 C87 1.247 1_545 S
O97 Co84 2.244 1_565 S
O97 C87 1.272 . S
O97 Co89 2.135 1_565 S
Co98 O99 2.216 . S
Co98 O100 2.091 . S
Co98 O102 2.004 . S
Co98 O108 2.021 . S
Co98 O110 2.137 . S
Co98 O111 2.244 . S
O99 Co98 2.216 . S
O99 C106 1.247 . S
O100 Co98 2.091 . S
O100 C106 1.261 . S
C101 O110 1.247 . S
C101 O111 1.272 . S
O102 Co98 2.004 . S
O102 C107 1.259 . S
Co103 O104 2.061 . S
Co103 O109 2.052 . S
Co103 O111 2.135 . S
O104 Co103 2.061 . S
O104 C107 1.235 . S
C105 O108 1.238 . S
C105 O109 1.241 . S
C106 O99 1.247 . S
C106 O100 1.261 . S
C107 O102 1.259 . S
C107 O104 1.235 . S
O108 Co98 2.021 . S
O108 C105 1.238 . S
O109 Co103 2.052 . S
O109 C105 1.241 . S
O110 Co98 2.137 . S
O110 C101 1.247 . S
O111 Co98 2.244 . S
O111 C101 1.272 . S
O111 Co103 2.135 . S
H112 C120 0.950 . S
H113 C125 0.950 . S
H114 C122 0.950 . S
H115 C124 0.950 . S
H116 C126 0.950 . S
H117 C128 0.950 . S
H118 C130 0.950 . S
H119 C131 0.950 . S
C120 H112 0.950 . S
C120 C121 1.386 . S
C120 C122 1.391 . S
C121 C120 1.386 . S
C121 C125 1.393 . S
C122 H114 0.950 . S
C122 C120 1.391 . S
C122 C123 1.400 . S
C123 C122 1.400 . S
C123 C124 1.398 . S
C123 C129 1.491 1_554 S
C124 H115 0.950 . S
C124 C123 1.398 . S
C124 C125 1.391 . S
C125 H113 0.950 . S
C125 C121 1.393 . S
C125 C124 1.391 . S
C126 H116 0.950 . S
C126 C127 1.386 . S
C126 C128 1.391 . S
C127 C126 1.386 . S
C127 C131 1.393 . S
C128 H117 0.950 . S
C128 C126 1.391 . S
C128 C129 1.400 . S
C129 C123 1.491 1_556 S
C129 C128 1.400 . S
C129 C130 1.398 . S
C130 H118 0.950 . S
C130 C129 1.398 . S
C130 C131 1.391 . S
C131 H119 0.950 . S
C131 C127 1.393 . S
C131 C130 1.391 . S
H132 C140 0.950 . S
H133 C145 0.950 . S
H134 C142 0.950 . S
H135 C144 0.950 . S
H136 C146 0.950 . S
H137 C148 0.950 . S
H138 C150 0.950 . S
H139 C151 0.950 . S
C140 H132 0.950 . S
C140 C141 1.386 . S
C140 C142 1.391 . S
C141 C140 1.386 . S
C141 C145 1.393 . S
C142 H134 0.950 . S
C142 C140 1.391 . S
C142 C143 1.400 . S
C143 C142 1.400 . S
C143 C144 1.398 . S
C143 C149 1.491 . S
C144 H135 0.950 . S
C144 C143 1.398 . S
C144 C145 1.391 . S
C145 H133 0.950 . S
C145 C141 1.393 . S
C145 C144 1.391 . S
C146 H136 0.950 . S
C146 C147 1.386 . S
C146 C148 1.391 . S
C147 C146 1.386 . S
C147 C151 1.393 . S
C148 H137 0.950 . S
C148 C146 1.391 . S
C148 C149 1.400 . S
C149 C143 1.491 . S
C149 C148 1.400 . S
C149 C150 1.398 . S
C150 H138 0.950 . S
C150 C149 1.398 . S
C150 C151 1.391 . S
C151 H139 0.950 . S
C151 C147 1.393 . S
C151 C150 1.391 . S
H152 C160 0.950 . S
H153 C165 0.950 . S
H154 C162 0.950 . S
H155 C164 0.950 . S
H156 C166 0.950 . S
H157 C168 0.950 . S
H158 C170 0.950 . S
H159 C171 0.950 . S
C160 H152 0.950 . S
C160 C161 1.386 . S
C160 C162 1.391 . S
C161 C160 1.386 . S
C161 C165 1.393 . S
C162 H154 0.950 . S
C162 C160 1.391 . S
C162 C163 1.400 . S
C163 C162 1.400 . S
C163 C164 1.398 . S
C163 C169 1.491 1_556 S
C164 H155 0.950 . S
C164 C163 1.398 . S
C164 C165 1.391 . S
C165 H153 0.950 . S
C165 C161 1.393 . S
C165 C164 1.391 . S
C166 H156 0.950 . S
C166 C167 1.386 . S
C166 C168 1.391 . S
C167 C166 1.386 . S
C167 C171 1.393 . S
C168 H157 0.950 . S
C168 C166 1.391 . S
C168 C169 1.400 . S
C169 C163 1.491 1_554 S
C169 C168 1.400 . S
C169 C170 1.398 . S
C170 H158 0.950 . S
C170 C169 1.398 . S
C170 C171 1.391 . S
C171 H159 0.950 . S
C171 C167 1.393 . S
C171 C170 1.391 . S
H172 C180 0.950 . S
H173 C185 0.950 . S
H174 C182 0.950 . S
H175 C184 0.950 . S
H176 C186 0.950 . S
H177 C188 0.950 . S
H178 C190 0.950 . S
H179 C191 0.950 . S
C180 H172 0.950 . S
C180 C181 1.386 . S
C180 C182 1.391 . S
C181 C180 1.386 . S
C181 C185 1.393 . S
C182 H174 0.950 . S
C182 C180 1.391 . S
C182 C183 1.400 . S
C183 C182 1.400 . S
C183 C184 1.398 . S
C183 C189 1.491 . S
C184 H175 0.950 . S
C184 C183 1.398 . S
C184 C185 1.391 . S
C185 H173 0.950 . S
C185 C181 1.393 . S
C185 C184 1.391 . S
C186 H176 0.950 . S
C186 C187 1.386 . S
C186 C188 1.391 . S
C187 C186 1.386 . S
C187 C191 1.393 . S
C188 H177 0.950 . S
C188 C186 1.391 . S
C188 C189 1.400 . S
C189 C183 1.491 . S
C189 C188 1.400 . S
C189 C190 1.398 . S
C190 H178 0.950 . S
C190 C189 1.398 . S
C190 C191 1.391 . S
C191 H179 0.950 . S
C191 C187 1.393 . S
C191 C190 1.391 . S
H192 C200 0.950 1_565 S
H193 C205 0.950 . S
H194 C202 0.950 . S
H195 C204 0.950 . S
H196 C206 0.950 . S
H197 C208 0.950 . S
H198 C210 0.950 . S
H199 C211 0.950 . S
C200 H192 0.950 1_545 S
C200 C201 1.386 . S
C200 C202 1.391 . S
C201 C200 1.386 . S
C201 C205 1.393 . S
C202 H194 0.950 . S
C202 C200 1.391 . S
C202 C203 1.400 . S
C203 C202 1.400 . S
C203 C204 1.398 . S
C203 C209 1.491 . S
C204 H195 0.950 . S
C204 C203 1.398 . S
C204 C205 1.391 . S
C205 H193 0.950 . S
C205 C201 1.393 . S
C205 C204 1.391 . S
C206 H196 0.950 . S
C206 C207 1.386 . S
C206 C208 1.391 . S
C207 C206 1.386 . S
C207 C211 1.393 . S
C208 H197 0.950 . S
C208 C206 1.391 . S
C208 C209 1.400 . S
C209 C203 1.491 . S
C209 C208 1.400 . S
C209 C210 1.398 . S
C210 H198 0.950 . S
C210 C209 1.398 . S
C210 C211 1.391 . S
C211 H199 0.950 . S
C211 C207 1.393 . S
C211 C210 1.391 . S
H212 C220 0.950 . S
H213 C225 0.950 . S
H214 C222 0.950 . S
H215 C224 0.950 . S
H216 C226 0.950 1_655 S
H217 C228 0.950 1_655 S
H218 C230 0.950 . S
H219 C231 0.950 . S
C220 H212 0.950 . S
C220 C221 1.386 . S
C220 C222 1.391 . S
C221 C220 1.386 . S
C221 C225 1.393 . S
C222 H214 0.950 . S
C222 C220 1.391 . S
C222 C223 1.400 . S
C223 C222 1.400 . S
C223 C224 1.398 . S
C223 C229 1.491 . S
C224 H215 0.950 . S
C224 C223 1.398 . S
C224 C225 1.391 . S
C225 H213 0.950 . S
C225 C221 1.393 . S
C225 C224 1.391 . S
C226 H216 0.950 1_455 S
C226 C227 1.386 . S
C226 C228 1.391 . S
C227 C226 1.386 . S
C227 C231 1.393 . S
C228 H217 0.950 1_455 S
C228 C226 1.391 . S
C228 C229 1.400 . S
C229 C223 1.491 . S
C229 C228 1.400 . S
C229 C230 1.398 . S
C230 H218 0.950 . S
C230 C229 1.398 . S
C230 C231 1.391 . S
C231 H219 0.950 . S
C231 C227 1.393 . S
C231 C230 1.391 . S
H232 C240 0.950 . S
H233 C245 0.950 1_565 S
H234 C242 0.950 . S
H235 C244 0.950 1_565 S
H236 C246 0.950 . S
H237 C248 0.950 . S
H238 C250 0.950 . S
H239 C251 0.950 . S
C240 H232 0.950 . S
C240 C241 1.386 . S
C240 C242 1.391 . S
C241 C240 1.386 . S
C241 C245 1.393 . S
C242 H234 0.950 . S
C242 C240 1.391 . S
C242 C243 1.400 . S
C243 C242 1.400 . S
C243 C244 1.398 . S
C243 C249 1.491 . S
C244 H235 0.950 1_545 S
C244 C243 1.398 . S
C244 C245 1.391 . S
C245 H233 0.950 1_545 S
C245 C241 1.393 . S
C245 C244 1.391 . S
C246 H236 0.950 . S
C246 C247 1.386 . S
C246 C248 1.391 . S
C247 C246 1.386 . S
C247 C251 1.393 . S
C248 H237 0.950 . S
C248 C246 1.391 . S
C248 C249 1.400 . S
C249 C243 1.491 . S
C249 C248 1.400 . S
C249 C250 1.398 . S
C250 H238 0.950 . S
C250 C249 1.398 . S
C250 C251 1.391 . S
C251 H239 0.950 . S
C251 C247 1.393 . S
C251 C250 1.391 . S
H252 C260 0.950 . S
H253 C265 0.950 . S
H254 C262 0.950 . S
H255 C264 0.950 . S
H256 C266 0.950 . S
H257 C268 0.950 . S
H258 C270 0.950 . S
H259 C271 0.950 . S
C260 H252 0.950 . S
C260 C261 1.386 . S
C260 C262 1.391 . S
C261 C260 1.386 . S
C261 C265 1.393 . S
C262 H254 0.950 . S
C262 C260 1.391 . S
C262 C263 1.400 . S
C263 C262 1.400 . S
C263 C264 1.398 . S
C263 C269 1.491 . S
C264 H255 0.950 . S
C264 C263 1.398 . S
C264 C265 1.391 . S
C265 H253 0.950 . S
C265 C261 1.393 . S
C265 C264 1.391 . S
C266 H256 0.950 . S
C266 C267 1.386 . S
C266 C268 1.391 . S
C267 C266 1.386 . S
C267 C271 1.393 . S
C268 H257 0.950 . S
C268 C266 1.391 . S
C268 C269 1.400 . S
C269 C263 1.491 . S
C269 C268 1.400 . S
C269 C270 1.398 . S
C270 H258 0.950 . S
C270 C269 1.398 . S
C270 C271 1.391 . S
C271 H259 0.950 . S
C271 C267 1.393 . S
C271 C270 1.391 . S
H272 C280 0.950 . S
H273 C285 0.950 . S
H274 C282 0.950 . S
H275 C284 0.950 . S
H276 C286 0.950 . S
H277 C288 0.950 . S
H278 C290 0.950 . S
H279 C291 0.950 . S
C280 H272 0.950 . S
C280 C281 1.386 . S
C280 C282 1.391 . S
C281 C280 1.386 . S
C281 C285 1.393 . S
C282 H274 0.950 . S
C282 C280 1.391 . S
C282 C283 1.400 . S
C283 C282 1.400 . S
C283 C284 1.398 . S
C283 C289 1.491 . S
C284 H275 0.950 . S
C284 C283 1.398 . S
C284 C285 1.391 . S
C285 H273 0.950 . S
C285 C281 1.393 . S
C285 C284 1.391 . S
C286 H276 0.950 . S
C286 C287 1.386 . S
C286 C288 1.391 . S
C287 C286 1.386 . S
C287 C291 1.393 . S
C288 H277 0.950 . S
C288 C286 1.391 . S
C288 C289 1.400 . S
C289 C283 1.491 . S
C289 C288 1.400 . S
C289 C290 1.398 . S
C290 H278 0.950 . S
C290 C289 1.398 . S
C290 C291 1.391 . S
C291 H279 0.950 . S
C291 C287 1.393 . S
C291 C290 1.391 . S
H292 C300 0.950 . S
H293 C305 0.950 1_455 S
H294 C302 0.950 . S
H295 C304 0.950 . S
H296 C306 0.950 . S
H297 C308 0.950 . S
H298 C310 0.950 . S
H299 C311 0.950 . S
C300 H292 0.950 . S
C300 C301 1.386 . S
C300 C302 1.391 . S
C301 C300 1.386 . S
C301 C305 1.393 . S
C302 H294 0.950 . S
C302 C300 1.391 . S
C302 C303 1.400 . S
C303 C302 1.400 . S
C303 C304 1.398 . S
C303 C309 1.491 . S
C304 H295 0.950 . S
C304 C303 1.398 . S
C304 C305 1.391 . S
C305 H293 0.950 1_655 S
C305 C301 1.393 . S
C305 C304 1.391 . S
C306 H296 0.950 . S
C306 C307 1.386 . S
C306 C308 1.391 . S
C307 C306 1.386 . S
C307 C311 1.393 . S
C308 H297 0.950 . S
C308 C306 1.391 . S
C308 C309 1.400 . S
C309 C303 1.491 . S
C309 C308 1.400 . S
C309 C310 1.398 . S
C310 H298 0.950 . S
C310 C309 1.398 . S
C310 C311 1.391 . S
C311 H299 0.950 . S
C311 C307 1.393 . S
C311 C310 1.391 . S
H312 C320 0.950 . S
H313 C325 0.950 . S
H314 C322 0.950 . S
H315 C324 0.950 . S
H316 C326 0.950 . S
H317 C328 0.950 . S
H318 C330 0.950 . S
H319 C331 0.950 1_545 S
C320 H312 0.950 . S
C320 C321 1.386 . S
C320 C322 1.391 . S
C321 C320 1.386 . S
C321 C325 1.393 . S
C322 H314 0.950 . S
C322 C320 1.391 . S
C322 C323 1.400 . S
C323 C322 1.400 . S
C323 C324 1.398 . S
C323 C329 1.491 . S
C324 H315 0.950 . S
C324 C323 1.398 . S
C324 C325 1.391 . S
C325 H313 0.950 . S
C325 C321 1.393 . S
C325 C324 1.391 . S
C326 H316 0.950 . S
C326 C327 1.386 . S
C326 C328 1.391 . S
C327 C326 1.386 . S
C327 C331 1.393 . S
C328 H317 0.950 . S
C328 C326 1.391 . S
C328 C329 1.400 . S
C329 C323 1.491 . S
C329 C328 1.400 . S
C329 C330 1.398 . S
C330 H318 0.950 . S
C330 C329 1.398 . S
C330 C331 1.391 . S
C331 H319 0.950 1_565 S
C331 C327 1.393 . S
C331 C330 1.391 . S
H332 C340 0.950 . S
H333 C345 0.950 . S
H334 C342 0.950 . S
H335 C344 0.950 . S
H336 C346 0.950 1_545 S
H337 C348 0.950 . S
H338 C350 0.950 . S
H339 C351 0.950 . S
C340 H332 0.950 . S
C340 C341 1.386 . S
C340 C342 1.391 . S
C341 C340 1.386 . S
C341 C345 1.393 . S
C342 H334 0.950 . S
C342 C340 1.391 . S
C342 C343 1.400 . S
C343 C342 1.400 . S
C343 C344 1.398 . S
C343 C349 1.491 . S
C344 H335 0.950 . S
C344 C343 1.398 . S
C344 C345 1.391 . S
C345 H333 0.950 . S
C345 C341 1.393 . S
C345 C344 1.391 . S
C346 H336 0.950 1_565 S
C346 C347 1.386 . S
C346 C348 1.391 . S
C347 C346 1.386 . S
C347 C351 1.393 . S
C348 H337 0.950 . S
C348 C346 1.391 . S
C348 C349 1.400 . S
C349 C343 1.491 . S
C349 C348 1.400 . S
C349 C350 1.398 . S
C350 H338 0.950 . S
C350 C349 1.398 . S
C350 C351 1.391 . S
C351 H339 0.950 . S
C351 C347 1.393 . S
C351 C350 1.391 . S
H352 C360 0.950 . S
H353 C365 0.950 . S
H354 C362 0.950 . S
H355 C364 0.950 . S
H356 C366 0.950 . S
H357 C368 0.950 . S
H358 C370 0.950 . S
H359 C371 0.950 . S
C360 H352 0.950 . S
C360 C361 1.386 . S
C360 C362 1.391 . S
C361 C360 1.386 . S
C361 C365 1.393 . S
C362 H354 0.950 . S
C362 C360 1.391 . S
C362 C363 1.400 . S
C363 C362 1.400 . S
C363 C364 1.398 . S
C363 C369 1.491 . S
C364 H355 0.950 . S
C364 C363 1.398 . S
C364 C365 1.391 . S
C365 H353 0.950 . S
C365 C361 1.393 . S
C365 C364 1.391 . S
C366 H356 0.950 . S
C366 C367 1.386 . S
C366 C368 1.391 . S
C367 C366 1.386 . S
C367 C371 1.393 . S
C368 H357 0.950 . S
C368 C366 1.391 . S
C368 C369 1.400 . S
C369 C363 1.491 . S
C369 C368 1.400 . S
C369 C370 1.398 . S
C370 H358 0.950 . S
C370 C369 1.398 . S
C370 C371 1.391 . S
C371 H359 0.950 . S
C371 C367 1.393 . S
C371 C370 1.391 . S
H372 C380 0.950 . S
H373 C385 0.950 . S
H374 C382 0.950 . S
H375 C384 0.950 . S
H376 C386 0.950 . S
H377 C388 0.950 . S
H378 C390 0.950 . S
H379 C391 0.950 . S
C380 H372 0.950 . S
C380 C381 1.386 . S
C380 C382 1.391 . S
C381 C380 1.386 . S
C381 C385 1.393 . S
C382 H374 0.950 . S
C382 C380 1.391 . S
C382 C383 1.400 . S
C383 C382 1.400 . S
C383 C384 1.398 . S
C383 C389 1.491 . S
C384 H375 0.950 . S
C384 C383 1.398 . S
C384 C385 1.391 . S
C385 H373 0.950 . S
C385 C381 1.393 . S
C385 C384 1.391 . S
C386 H376 0.950 . S
C386 C387 1.386 . S
C386 C388 1.391 . S
C387 C386 1.386 . S
C387 C391 1.393 . S
C388 H377 0.950 . S
C388 C386 1.391 . S
C388 C389 1.400 . S
C389 C383 1.491 . S
C389 C388 1.400 . S
C389 C390 1.398 . S
C390 H378 0.950 . S
C390 C389 1.398 . S
C390 C391 1.391 . S
C391 H379 0.950 . S
C391 C387 1.393 . S
C391 C390 1.391 . S
H392 C400 0.950 . S
H393 C405 0.950 . S
H394 C402 0.950 . S
H395 C404 0.950 . S
H396 C406 0.950 . S
H397 C408 0.950 . S
H398 C410 0.950 . S
H399 C411 0.950 . S
C400 H392 0.950 . S
C400 C401 1.386 . S
C400 C402 1.391 . S
C401 C400 1.386 . S
C401 C405 1.393 . S
C402 H394 0.950 . S
C402 C400 1.391 . S
C402 C403 1.400 . S
C403 C402 1.400 . S
C403 C404 1.398 . S
C403 C409 1.491 . S
C404 H395 0.950 . S
C404 C403 1.398 . S
C404 C405 1.391 . S
C405 H393 0.950 . S
C405 C401 1.393 . S
C405 C404 1.391 . S
C406 H396 0.950 . S
C406 C407 1.386 . S
C406 C408 1.391 . S
C407 C406 1.386 . S
C407 C411 1.393 . S
C408 H397 0.950 . S
C408 C406 1.391 . S
C408 C409 1.400 . S
C409 C403 1.491 . S
C409 C408 1.400 . S
C409 C410 1.398 . S
C410 H398 0.950 . S
C410 C409 1.398 . S
C410 C411 1.391 . S
C411 H399 0.950 . S
C411 C407 1.393 . S
C411 C410 1.391 . S
H412 C420 0.950 . S
H413 C425 0.950 . S
H414 C422 0.950 . S
H415 C424 0.950 . S
H416 C426 0.950 . S
H417 C428 0.950 . S
H418 C430 0.950 . S
H419 C431 0.950 . S
C420 H412 0.950 . S
C420 C421 1.386 . S
C420 C422 1.391 . S
C421 C420 1.386 . S
C421 C425 1.393 . S
C422 H414 0.950 . S
C422 C420 1.391 . S
C422 C423 1.400 . S
C423 C422 1.400 . S
C423 C424 1.398 . S
C423 C429 1.491 . S
C424 H415 0.950 . S
C424 C423 1.398 . S
C424 C425 1.391 . S
C425 H413 0.950 . S
C425 C421 1.393 . S
C425 C424 1.391 . S
C426 H416 0.950 . S
C426 C427 1.386 . S
C426 C428 1.391 . S
C427 C426 1.386 . S
C427 C431 1.393 . S
C428 H417 0.950 . S
C428 C426 1.391 . S
C428 C429 1.400 . S
C429 C423 1.491 . S
C429 C428 1.400 . S
C429 C430 1.398 . S
C430 H418 0.950 . S
C430 C429 1.398 . S
C430 C431 1.391 . S
C431 H419 0.950 . S
C431 C427 1.393 . S
C431 C430 1.391 . S
C121 C7 1.545 . S
C127 C63 1.553 . S
C141 C21 1.548 . S
C147 C77 1.552 . S
C161 C91 1.545 . S
C167 C35 1.538 . S
C181 C105 1.541 . S
C187 C49 1.540 . S
C201 C8 1.287 . S
C207 C36 1.290 . S
C221 C22 1.291 . S
C227 C50 1.295 . S
C241 C92 1.296 . S
C247 C64 1.292 . S
C261 C78 1.285 . S
C267 C106 1.286 . S
C281 C79 1.469 . S
C287 C9 1.483 . S
C301 C23 1.471 1_655 S
C307 C93 1.482 . S
C321 C107 1.470 1_655 S
C327 C37 1.481 1_565 S
C341 C51 1.478 . S
C347 C65 1.475 1_565 S
C361 C87 1.175 . S
C367 C45 1.181 . S
C381 C3 1.174 . S
C387 C101 1.163 . S
C401 C17 1.172 . S
C407 C59 1.182 . S
C421 C73 1.165 . S
C427 C31 1.180 . S
