# Generated by pormake.
# Topology dft, (4)-cn, num edge types: 1
# Building blocks:
#     Node 0, Type 0, BuildingBlock: CEKHIL_clean_sbu_0, # of connection points: 4
#     Node 1, Type 0, BuildingBlock: CEKHIL_clean_sbu_0, # of connection points: 4
#     Node 2, Type 0, BuildingBlock: CEKHIL_clean_sbu_0, # of connection points: 4
#     Node 3, Type 0, BuildingBlock: CEKHIL_clean_sbu_0, # of connection points: 4
#     Node 4, Type 0, BuildingBlock: CEKHIL_clean_sbu_0, # of connection points: 4
#     Node 5, Type 0, BuildingBlock: CEKHIL_clean_sbu_0, # of connection points: 4
#     Node 6, Type 0, BuildingBlock: CEKHIL_clean_sbu_0, # of connection points: 4
#     Node 7, Type 0, BuildingBlock: CEKHIL_clean_sbu_0, # of connection points: 4
#     Edge 8, Type (0, 0), BuildingBlock: XIVTED_clean_linker_0, # of connection points: 2
#     Edge 9, Type (0, 0), BuildingBlock: XIVTED_clean_linker_0, # of connection points: 2
#     Edge 10, Type (0, 0), BuildingBlock: XIVTED_clean_linker_0, # of connection points: 2
#     Edge 11, Type (0, 0), BuildingBlock: XIVTED_clean_linker_0, # of connection points: 2
#     Edge 12, Type (0, 0), BuildingBlock: XIVTED_clean_linker_0, # of connection points: 2
#     Edge 13, Type (0, 0), BuildingBlock: XIVTED_clean_linker_0, # of connection points: 2
#     Edge 14, Type (0, 0), BuildingBlock: XIVTED_clean_linker_0, # of connection points: 2
#     Edge 15, Type (0, 0), BuildingBlock: XIVTED_clean_linker_0, # of connection points: 2
#     Edge 16, Type (0, 0), BuildingBlock: XIVTED_clean_linker_0, # of connection points: 2
#     Edge 17, Type (0, 0), BuildingBlock: XIVTED_clean_linker_0, # of connection points: 2
#     Edge 18, Type (0, 0), BuildingBlock: XIVTED_clean_linker_0, # of connection points: 2
#     Edge 19, Type (0, 0), BuildingBlock: XIVTED_clean_linker_0, # of connection points: 2
#     Edge 20, Type (0, 0), BuildingBlock: XIVTED_clean_linker_0, # of connection points: 2
#     Edge 21, Type (0, 0), BuildingBlock: XIVTED_clean_linker_0, # of connection points: 2
#     Edge 22, Type (0, 0), BuildingBlock: XIVTED_clean_linker_0, # of connection points: 2
#     Edge 23, Type (0, 0), BuildingBlock: XIVTED_clean_linker_0, # of connection points: 2
# Relax obj value: 0.182
# Max RMSD: 0.171
# Mean RMSD: 0.171
data_MOF--net-dft--node1-CEKHIL_clean_sbu_0--edge1-XIVTED_clean_linker_0
_symmetry_space_group_name_H-M    P1
_symmetry_Int_Tables_number       1
_symmetry_cell_setting            triclinic
loop_
_symmetry_equiv_pos_as_xyz
'x, y, z'
_cell_length_a     34.108803
_cell_length_b     34.123189
_cell_length_c     40.805175
_cell_angle_alpha  89.990605
_cell_angle_beta   89.994878
_cell_angle_gamma 89.919913
loop_
_atom_site_label
_atom_site_type_symbol
_atom_site_fract_x
_atom_site_fract_y
_atom_site_fract_z
_atom_type_partial_charge
Co0 Co 0.34363 0.03755 0.18415 0.0
O1 O 0.39259 0.00976 0.1842 0.0
O2 O 0.38488 0.07158 0.19966 0.0
C3 C 0.30826 0.98925 0.20671 0.0
O4 O 0.29719 0.07514 0.18944 0.0
Co5 Co 0.27218 0.00644 0.14426 0.0
O6 O 0.24282 0.04464 0.17151 0.0
C7 C 0.34358 0.03461 0.11137 0.0
C8 C 0.40819 0.04181 0.19521 0.0
C9 C 0.25958 0.07249 0.18692 0.0
O10 O 0.35348 0.05367 0.13729 0.0
O11 O 0.31451 0.01097 0.11046 0.0
O12 O 0.32862 0.01239 0.22551 0.0
O13 O 0.31266 0.99429 0.17573 0.0
Co14 Co 0.06579 0.34985 0.68326 0.0
O15 O 0.09319 0.3991 0.68146 0.0
O16 O 0.03186 0.39107 0.69828 0.0
C17 C 0.11439 0.31478 0.70569 0.0
O18 O 0.02817 0.30446 0.69085 0.0
Co19 Co 0.09335 0.27593 0.64518 0.0
O20 O 0.0507 0.24833 0.66884 0.0
C21 C 0.0679 0.3473 0.61097 0.0
C22 C 0.06097 0.41462 0.69253 0.0
C23 C 0.02594 0.26726 0.68607 0.0
O24 O 0.04848 0.35794 0.6365 0.0
O25 O 0.0912 0.31789 0.61088 0.0
O26 O 0.09207 0.33627 0.72438 0.0
O27 O 0.10849 0.31784 0.67467 0.0
Co28 Co 0.76413 0.05798 0.18314 0.0
O29 O 0.71573 0.0867 0.18516 0.0
O30 O 0.72275 0.02411 0.19855 0.0
C31 C 0.80141 0.10445 0.20618 0.0
O32 O 0.80989 0.01925 0.18623 0.0
Co33 Co 0.83483 0.08915 0.14235 0.0
O34 O 0.86429 0.04897 0.16745 0.0
C35 C 0.76133 0.06478 0.11076 0.0
C36 C 0.69984 0.05442 0.19543 0.0
C37 C 0.84743 0.021 0.18266 0.0
O38 O 0.75233 0.04419 0.13608 0.0
O39 O 0.79079 0.08792 0.10991 0.0
O40 O 0.78112 0.08106 0.22483 0.0
O41 O 0.79578 0.10084 0.1752 0.0
Co42 Co 0.04241 0.77097 0.67957 0.0
O43 O 0.01123 0.72408 0.67828 0.0
O44 O 0.07323 0.72723 0.69451 0.0
C45 C 0.99692 0.80967 0.70227 0.0
O46 O 0.08331 0.81361 0.68664 0.0
Co47 Co 0.01966 0.8461 0.64088 0.0
O48 O 0.06372 0.87097 0.66479 0.0
C49 C 0.03916 0.77252 0.60735 0.0
C50 C 0.0422 0.70609 0.68919 0.0
C51 C 0.08748 0.85068 0.68194 0.0
O52 O 0.05844 0.7612 0.63274 0.0
O53 O 0.01803 0.80352 0.60709 0.0
O54 O 0.0178 0.78666 0.72085 0.0
O55 O 0.00209 0.80599 0.67119 0.0
Co56 Co 0.34419 0.0708 0.81146 0.0
O57 O 0.392 0.10058 0.81357 0.0
O58 O 0.38713 0.03917 0.79618 0.0
C59 C 0.30702 0.11808 0.78945 0.0
O60 O 0.30059 0.03122 0.80338 0.0
Co61 Co 0.26908 0.09431 0.84983 0.0
O62 O 0.24345 0.05108 0.82542 0.0
C63 C 0.3415 0.07147 0.88382 0.0
C64 C 0.40914 0.06939 0.80215 0.0
C65 C 0.26346 0.02741 0.80798 0.0
O66 O 0.35304 0.05313 0.85802 0.0
O67 O 0.311 0.09334 0.88423 0.0
O68 O 0.32955 0.09703 0.7706 0.0
O69 O 0.31018 0.11183 0.82043 0.0
Co70 Co 0.04282 0.33651 0.31103 0.0
O71 O 0.01403 0.3849 0.30935 0.0
O72 O 0.07649 0.37791 0.29543 0.0
C73 C 0.99614 0.29928 0.28825 0.0
O74 O 0.08164 0.29088 0.30747 0.0
Co75 Co 0.01241 0.26549 0.35175 0.0
O76 O 0.0522 0.23625 0.32602 0.0
C77 C 0.03726 0.33869 0.38361 0.0
C78 C 0.0462 0.4008 0.29882 0.0
C79 C 0.07998 0.25331 0.31075 0.0
O80 O 0.05716 0.34813 0.358 0.0
O81 O 0.01438 0.30903 0.3846 0.0
O82 O 0.0193 0.31969 0.26949 0.0
O83 O 8e-05 0.30474 0.31922 0.0
Co84 Co 0.76567 0.04957 0.81169 0.0
O85 O 0.71781 0.01984 0.81171 0.0
O86 O 0.72318 0.08217 0.79687 0.0
C87 C 0.8035 0.00362 0.78861 0.0
O88 O 0.80975 0.08927 0.80603 0.0
Co89 Co 0.83927 0.0233 0.85096 0.0
O90 O 0.866 0.06724 0.82832 0.0
C91 C 0.76558 0.04407 0.8838 0.0
C92 C 0.70098 0.0517 0.80134 0.0
C93 C 0.84684 0.09209 0.81135 0.0
O94 O 0.75545 0.06452 0.85871 0.0
O95 O 0.79586 0.02191 0.88403 0.0
O96 O 0.78149 0.02568 0.77013 0.0
O97 O 0.79926 0.008 0.81972 0.0
Co98 Co 0.06476 0.75694 0.30696 0.0
O99 O 0.09226 0.70784 0.30691 0.0
O100 O 0.03023 0.71579 0.29204 0.0
C101 C 0.11301 0.79183 0.28377 0.0
O102 O 0.02738 0.80355 0.30182 0.0
Co103 Co 0.097 0.82847 0.34612 0.0
O104 O 0.05843 0.85784 0.31924 0.0
C105 C 0.06896 0.7575 0.37964 0.0
C106 C 0.05992 0.69234 0.29636 0.0
C107 C 0.03024 0.84114 0.3042 0.0
O108 O 0.04927 0.74759 0.35405 0.0
O109 O 0.09293 0.78631 0.38009 0.0
O110 O 0.08948 0.77153 0.26525 0.0
O111 O 0.10832 0.78764 0.3148 0.0
H112 H 0.37313 0.10298 0.08604 0.0
H113 H 0.37665 0.00565 0.90917 0.0
H114 H 0.362 0.97932 0.06652 0.0
H115 H 0.35455 0.12782 0.92902 0.0
H116 H 0.39772 0.99716 0.96632 0.0
H117 H 0.39296 0.11311 0.02878 0.0
C118 C 0.37601 0.0779 0.06994 0.0
C119 C 0.36492 0.04049 0.08048 0.0
C120 C 0.38919 0.02603 0.95787 0.0
C121 C 0.38729 0.05164 0.01553 0.0
C122 C 0.37729 0.03083 0.92533 0.0
C123 C 0.36283 0.06716 0.9149 0.0
C124 C 0.38671 0.05788 0.97971 0.0
C125 C 0.36448 0.09904 0.93655 0.0
C126 C 0.38717 0.08363 0.03733 0.0
C127 C 0.36933 0.00881 0.05889 0.0
N128 N 0.37555 0.09354 0.9681 0.0
N129 N 0.37955 0.01517 0.02725 0.0
H130 H 0.00051 0.37716 0.58386 0.0
H131 H 0.10315 0.37319 0.40934 0.0
H132 H 0.12468 0.36436 0.56713 0.0
H133 H 0.97974 0.35571 0.42691 0.0
H134 H 0.11036 0.39638 0.466 0.0
H135 H 0.99227 0.39587 0.52612 0.0
C136 C 0.0261 0.37945 0.56826 0.0
C137 C 0.0631 0.36818 0.57974 0.0
C138 C 0.08153 0.3884 0.45713 0.0
C139 C 0.0541 0.38921 0.51424 0.0
C140 C 0.07746 0.37529 0.42485 0.0
C141 C 0.04109 0.36147 0.41401 0.0
C142 C 0.04893 0.38768 0.47831 0.0
C143 C 0.00855 0.36507 0.43483 0.0
C144 C 0.02146 0.38997 0.53536 0.0
C145 C 0.09547 0.37183 0.55877 0.0
N146 N 0.01333 0.3772 0.46618 0.0
N147 N 0.09016 0.38138 0.52685 0.0
H148 H 0.74587 0.98335 0.9228 0.0
H149 H 0.73693 0.12402 0.07194 0.0
H150 H 0.73388 0.10864 0.91395 0.0
H151 H 0.735 -0.00182 0.08043 0.0
H152 H 0.71634 0.11859 0.01494 0.0
H153 H 0.7228 0.98715 0.9792 0.0
C154 C 0.73754 0.01164 0.93268 0.0
C155 C 0.74268 0.04589 0.91422 0.0
C156 C 0.71939 0.0921 0.02934 0.0
C157 C 0.71722 0.05065 0.97893 0.0
C158 C 0.73115 0.09521 0.06187 0.0
C159 C 0.7385 0.06141 0.08041 0.0
C160 C 0.71612 0.05485 0.01506 0.0
C161 C 0.73006 0.02486 0.06667 0.0
C162 C 0.72428 0.01381 0.96486 0.0
C163 C 0.7308 0.08167 0.92769 0.0
N164 N 0.72031 0.02246 0.03441 0.0
N165 N 0.71958 0.08329 0.95965 0.0
H166 H 0.1254 0.73348 0.42145 0.0
H167 H 0.9794 0.7581 0.5657 0.0
H168 H 1e-05 0.73583 0.40882 0.0
H169 H 0.10272 0.73589 0.57954 0.0
H170 H 0.98427 0.73347 0.50985 0.0
H171 H 0.11651 0.71701 0.47908 0.0
C172 C 0.09593 0.72946 0.43078 0.0
C173 C 0.06332 0.73679 0.41079 0.0
C174 C 0.0102 0.73312 0.52517 0.0
C175 C 0.05283 0.71916 0.4768 0.0
C176 C 0.00745 0.74735 0.55701 0.0
C177 C 0.04098 0.74993 0.57675 0.0
C178 C 0.04701 0.72243 0.51268 0.0
C179 C 0.07636 0.73487 0.56479 0.0
C180 C 0.09084 0.72006 0.46367 0.0
C181 C 0.02582 0.73076 0.42368 0.0
N182 N 0.07871 0.72265 0.53311 0.0
N183 N 0.02154 0.72331 0.45622 0.0
H184 H 0.4523 0.10722 0.2079 0.0
H185 H 0.6555 0.98904 0.20728 0.0
H186 H 0.46103 0.98186 0.19574 0.0
H187 H 0.6473 0.11471 0.19724 0.0
H188 H 0.58406 0.98593 0.21244 0.0
H189 H 0.52378 0.11045 0.21326 0.0
C190 C 0.46921 0.08037 0.20665 0.0
C191 C 0.4508 0.04428 0.20107 0.0
C192 C 0.59796 0.0142 0.20932 0.0
C193 C 0.53232 0.04771 0.20721 0.0
C194 C 0.63871 0.01599 0.20648 0.0
C195 C 0.65727 0.05214 0.20153 0.0
C196 C 0.57572 0.04883 0.20737 0.0
C197 C 0.63412 0.08618 0.20074 0.0
C198 C 0.50997 0.08223 0.20962 0.0
C199 C 0.47408 0.01036 0.19972 0.0
N200 N 0.59453 0.08368 0.20347 0.0
N201 N 0.51363 0.01292 0.20264 0.0
H202 H 0.99598 0.45529 0.712 0.0
H203 H 0.98049 0.65555 0.68454 0.0
H204 H 0.11666 0.47109 0.68305 0.0
H205 H 0.10482 0.65919 0.704 0.0
H206 H 0.98239 0.58436 0.6888 0.0
H207 H 0.98855 0.52625 0.71568 0.0
C208 C 0.0209 0.47373 0.70635 0.0
C209 C 0.05686 0.45732 0.6968 0.0
C210 C 0.00911 0.60066 0.69295 0.0
C211 C 0.04832 0.5386 0.70012 0.0
C212 C 0.0081 0.64136 0.69018 0.0
C213 C 0.04254 0.66328 0.69397 0.0
C214 C 0.04489 0.58175 0.69951 0.0
C215 C 0.07756 0.64339 0.70101 0.0
C216 C 0.01652 0.51429 0.70812 0.0
C217 C 0.08831 0.48255 0.69019 0.0
N218 N 0.0779 0.60367 0.70323 0.0
N219 N 0.08327 0.52199 0.69191 0.0
H220 H 0.64876 0.99112 0.80123 0.0
H221 H 0.46134 0.12995 0.80522 0.0
H222 H 0.6559 0.11681 0.79096 0.0
H223 H 0.45432 0.0052 0.78879 0.0
H224 H 0.53272 0.1259 0.80085 0.0
H225 H 0.57741 0.99555 0.79742 0.0
C226 C 0.63531 0.01963 0.79796 0.0
C227 C 0.6582 0.05368 0.79657 0.0
C228 C 0.51553 0.09947 0.79793 0.0
C229 C 0.57667 0.059 0.79247 0.0
C230 C 0.47482 0.10175 0.80052 0.0
C231 C 0.45196 0.06782 0.79752 0.0
C232 C 0.53347 0.06293 0.79274 0.0
C233 C 0.47088 0.03206 0.79131 0.0
C234 C 0.5946 0.02213 0.79571 0.0
C235 C 0.6393 0.08984 0.79218 0.0
N236 N 0.5106 0.03049 0.78941 0.0
N237 N 0.59956 0.0916 0.7906 0.0
H238 H 0.11138 0.44484 0.28561 0.0
H239 H 0.99395 0.64842 0.28526 0.0
H240 H 0.98599 0.45354 0.298 0.0
H241 H 0.11961 0.63925 0.29522 0.0
H242 H 0.99024 0.57688 0.28075 0.0
H243 H 0.11457 0.51616 0.27986 0.0
C244 C 0.0845 0.46172 0.28682 0.0
C245 C 0.04842 0.44333 0.29258 0.0
C246 C 0.01863 0.59062 0.28371 0.0
C247 C 0.05182 0.52477 0.28605 0.0
C248 C 0.02075 0.63139 0.28619 0.0
C249 C 0.05709 0.6497 0.29091 0.0
C250 C 0.05312 0.56815 0.28575 0.0
C251 C 0.09093 0.62629 0.29191 0.0
C252 C 0.08634 0.50241 0.28363 0.0
C253 C 0.01447 0.46659 0.29387 0.0
N254 N 0.08811 0.58673 0.28947 0.0
N255 N 0.01702 0.50613 0.29077 0.0
H256 H 0.1504 0.2751 0.2823 0.0
H257 H 0.18133 0.06647 0.19935 0.0
H258 H 0.07753 0.17422 0.3014 0.0
H259 H 0.2796 0.14423 0.21395 0.0
H260 H 0.13999 0.11131 0.23009 0.0
H261 H 0.19603 0.23251 0.2519 0.0
C262 C 0.14409 0.24409 0.28035 0.0
C263 C 0.10996 0.22831 0.29449 0.0
C264 C 0.17059 0.11867 0.22658 0.0
C265 C 0.16153 0.17987 0.25935 0.0
C266 C 0.19427 0.09317 0.20877 0.0
C267 C 0.23418 0.10146 0.20398 0.0
C268 C 0.18652 0.1532 0.23956 0.0
C269 C 0.24905 0.13657 0.2171 0.0
C270 C 0.17014 0.21988 0.26303 0.0
C271 C 0.10337 0.18787 0.2911 0.0
N272 N 0.22516 0.1613 0.23423 0.0
N273 N 0.12863 0.16528 0.27369 0.0
H274 H 0.98507 0.20347 0.66411 0.0
H275 H 0.90952 0.1338 0.83439 0.0
H276 H 0.99733 0.28031 0.7474 0.0
H277 H 0.83511 0.12019 0.74971 0.0
H278 H 0.94981 0.18069 0.80341 0.0
H279 H 0.93705 0.16458 0.69515 0.0
C280 C 0.97744 0.21224 0.68882 0.0
C281 C 0.99493 0.24517 0.70323 0.0
C282 C 0.92435 0.16771 0.79186 0.0
C283 C 0.94127 0.20048 0.73887 0.0
C284 C 0.90149 0.14102 0.80942 0.0
C285 C 0.86889 0.12341 0.79458 0.0
C286 C 0.91528 0.17563 0.75898 0.0
C287 C 0.85979 0.13352 0.7621 0.0
C288 C 0.95006 0.19021 0.70639 0.0
C289 C 0.98417 0.25531 0.73535 0.0
N290 N 0.8833 0.15847 0.74513 0.0
N291 N 0.95848 0.23264 0.75235 0.0
H292 H 0.03633 0.91929 0.29144 0.0
H293 H 0.82609 0.95056 0.21127 0.0
H294 H 0.95792 0.82129 0.27815 0.0
H295 H 0.92674 0.02329 0.19094 0.0
H296 H 0.86919 0.90485 0.24107 0.0
H297 H 0.99102 0.96066 0.26121 0.0
C298 C 0.0094 0.90642 0.28241 0.0
C299 C 0.00106 0.86657 0.28742 0.0
C300 C 0.88166 0.93073 0.2298 0.0
C301 C 0.94876 0.91426 0.25243 0.0
C302 C 0.85715 0.95682 0.21282 0.0
C303 C 0.87271 0.99095 0.19852 0.0
C304 C 0.92175 0.93929 0.23298 0.0
C305 C 0.91323 0.99747 0.20139 0.0
C306 C 0.98362 0.93012 0.2649 0.0
C307 C 0.96563 0.85179 0.27482 0.0
N308 N 0.93613 0.97217 0.21848 0.0
N309 N 0.94064 0.87569 0.25796 0.0
H310 H 0.11455 0.83592 0.7435 0.0
H311 H 0.27855 0.00016 0.74652 0.0
H312 H 0.1312 0.91301 0.66088 0.0
H313 H 0.20049 0.98428 0.82863 0.0
H314 H 0.23928 0.95316 0.71489 0.0
H315 H 0.16123 0.87557 0.77514 0.0
C316 C 0.12866 0.8607 0.73183 0.0
C317 C 0.1191 0.87131 0.69957 0.0
C318 C 0.23118 0.95972 0.73997 0.0
C319 C 0.17256 0.91607 0.73534 0.0
C320 C 0.25359 0.98622 0.75807 0.0
C321 C 0.24261 0.99606 0.79019 0.0
C322 C 0.19833 0.94218 0.75445 0.0
C323 C 0.20976 0.97755 0.80389 0.0
C324 C 0.15495 0.88334 0.74994 0.0
C325 C 0.13776 0.90398 0.68572 0.0
N326 N 0.18882 0.95126 0.78598 0.0
N327 N 0.16382 0.92517 0.70366 0.0
H328 H 0.85226 0.95706 0.82387 0.0
H329 H 0.95246 0.86037 0.66697 0.0
H330 H 0.82217 0.98819 0.72441 0.0
H331 H 0.9798 0.82681 0.76642 0.0
H332 H 0.90653 0.90899 0.6876 0.0
H333 H 0.90077 0.91109 0.80323 0.0
C334 C 0.85592 0.95427 0.7976 0.0
C335 C 0.83311 0.97639 0.77573 0.0
C336 C 0.92257 0.89109 0.70495 0.0
C337 C 0.88866 0.92363 0.75199 0.0
C338 C 0.94886 0.8633 0.69323 0.0
C339 C 0.96988 0.83948 0.7151 0.0
C340 C 0.91719 0.89511 0.73882 0.0
C341 C 0.96407 0.84456 0.74878 0.0
C342 C 0.88366 0.92795 0.78587 0.0
C343 C 0.83912 0.97159 0.74204 0.0
N344 N 0.93813 0.87186 0.75965 0.0
N345 N 0.86636 0.94558 0.73115 0.0
H346 H 0.28878 0.9727 0.27054 0.0
H347 H 0.12777 0.81261 0.21981 0.0
H348 H 0.26232 0.94109 0.1705 0.0
H349 H 0.16259 0.83655 0.31956 0.0
H350 H 0.17522 0.86166 0.20097 0.0
H351 H 0.24035 0.92461 0.28919 0.0
C352 C 0.2728 0.95567 0.25258 0.0
C353 C 0.27952 0.96079 0.21902 0.0
C354 C 0.1724 0.85609 0.22698 0.0
C355 C 0.22432 0.90606 0.23992 0.0
C356 C 0.14539 0.82813 0.23766 0.0
C357 C 0.14131 0.82059 0.2712 0.0
C358 C 0.19523 0.87647 0.2501 0.0
C359 C 0.16473 0.84151 0.29343 0.0
C360 C 0.24521 0.92827 0.26315 0.0
C361 C 0.25803 0.93809 0.19666 0.0
N362 N 0.19065 0.86849 0.28248 0.0
N363 N 0.23139 0.91173 0.20751 0.0
H364 H 0.16316 0.26882 0.66995 0.0
H365 H 0.2576 0.16326 0.82539 0.0
H366 H 0.13047 0.29554 0.76972 0.0
H367 H 0.2911 0.1378 0.72558 0.0
H368 H 0.21051 0.2112 0.80546 0.0
H369 H 0.20973 0.22052 0.68996 0.0
C370 C 0.16579 0.26452 0.69616 0.0
C371 C 0.1429 0.28618 0.71829 0.0
C372 C 0.22809 0.19517 0.78787 0.0
C373 C 0.19632 0.2308 0.74133 0.0
C374 C 0.25499 0.16772 0.79919 0.0
C375 C 0.27829 0.14656 0.77702 0.0
C376 C 0.22441 0.20157 0.7541 0.0
C377 C 0.2737 0.15355 0.74345 0.0
C378 C 0.19245 0.23689 0.70754 0.0
C379 C 0.14762 0.27945 0.75189 0.0
N380 N 0.24722 0.18057 0.73297 0.0
N381 N 0.17388 0.25224 0.76243 0.0
H382 H 0.94912 0.25217 0.32452 0.0
H383 H 0.8483 0.15174 0.17 0.0
H384 H 0.98091 0.27839 0.22446 0.0
H385 H 0.82252 0.11933 0.27 0.0
H386 H 0.89726 0.19768 0.18955 0.0
H387 H 0.90319 0.20314 0.305 0.0
C388 C 0.94651 0.24754 0.29835 0.0
C389 C 0.96881 0.26943 0.27599 0.0
C390 C 0.88105 0.18051 0.20727 0.0
C391 C 0.91601 0.21329 0.25353 0.0
C392 C 0.85301 0.15422 0.19617 0.0
C393 C 0.83126 0.13173 0.2185 0.0
C394 C 0.88734 0.18457 0.24101 0.0
C395 C 0.83862 0.1362 0.25202 0.0
C396 C 0.92023 0.21947 0.28727 0.0
C397 C 0.96418 0.26219 0.24246 0.0
N398 N 0.86606 0.16229 0.26231 0.0
N399 N 0.93811 0.23472 0.2322 0.0
loop_
_geom_bond_atom_site_label_1
_geom_bond_atom_site_label_2
_geom_bond_distance
_geom_bond_site_symmetry_2
_ccdc_geom_bond_type
Co0 O1 2.216 . S
Co0 O2 2.091 . S
Co0 O4 2.004 . S
Co0 O10 2.021 . S
Co0 O12 2.137 . S
Co0 O13 2.244 1_545 S
O1 Co0 2.216 . S
O1 C8 1.247 . S
O2 Co0 2.091 . S
O2 C8 1.261 . S
C3 O12 1.247 1_565 S
C3 O13 1.272 . S
O4 Co0 2.004 . S
O4 C9 1.259 . S
Co5 O6 2.061 . S
Co5 O11 2.052 . S
Co5 O13 2.135 1_545 S
O6 Co5 2.061 . S
O6 C9 1.235 . S
C7 O10 1.238 . S
C7 O11 1.241 . S
C8 O1 1.247 . S
C8 O2 1.261 . S
C9 O4 1.259 . S
C9 O6 1.235 . S
O10 Co0 2.021 . S
O10 C7 1.238 . S
O11 Co5 2.052 . S
O11 C7 1.241 . S
O12 Co0 2.137 . S
O12 C3 1.247 1_545 S
O13 Co0 2.244 1_565 S
O13 C3 1.272 . S
O13 Co5 2.135 1_565 S
Co14 O15 2.216 . S
Co14 O16 2.091 . S
Co14 O18 2.004 . S
Co14 O24 2.021 . S
Co14 O26 2.137 . S
Co14 O27 2.244 . S
O15 Co14 2.216 . S
O15 C22 1.247 . S
O16 Co14 2.091 . S
O16 C22 1.261 . S
C17 O26 1.247 . S
C17 O27 1.272 . S
O18 Co14 2.004 . S
O18 C23 1.259 . S
Co19 O20 2.061 . S
Co19 O25 2.052 . S
Co19 O27 2.135 . S
O20 Co19 2.061 . S
O20 C23 1.235 . S
C21 O24 1.238 . S
C21 O25 1.241 . S
C22 O15 1.247 . S
C22 O16 1.261 . S
C23 O18 1.259 . S
C23 O20 1.235 . S
O24 Co14 2.021 . S
O24 C21 1.238 . S
O25 Co19 2.052 . S
O25 C21 1.241 . S
O26 Co14 2.137 . S
O26 C17 1.247 . S
O27 Co14 2.244 . S
O27 C17 1.272 . S
O27 Co19 2.135 . S
Co28 O29 2.216 . S
Co28 O30 2.091 . S
Co28 O32 2.004 . S
Co28 O38 2.021 . S
Co28 O40 2.137 . S
Co28 O41 2.244 . S
O29 Co28 2.216 . S
O29 C36 1.247 . S
O30 Co28 2.091 . S
O30 C36 1.261 . S
C31 O40 1.247 . S
C31 O41 1.272 . S
O32 Co28 2.004 . S
O32 C37 1.259 . S
Co33 O34 2.061 . S
Co33 O39 2.052 . S
Co33 O41 2.135 . S
O34 Co33 2.061 . S
O34 C37 1.235 . S
C35 O38 1.238 . S
C35 O39 1.241 . S
C36 O29 1.247 . S
C36 O30 1.261 . S
C37 O32 1.259 . S
C37 O34 1.235 . S
O38 Co28 2.021 . S
O38 C35 1.238 . S
O39 Co33 2.052 . S
O39 C35 1.241 . S
O40 Co28 2.137 . S
O40 C31 1.247 . S
O41 Co28 2.244 . S
O41 C31 1.272 . S
O41 Co33 2.135 . S
Co42 O43 2.216 . S
Co42 O44 2.091 . S
Co42 O46 2.004 . S
Co42 O52 2.021 . S
Co42 O54 2.137 . S
Co42 O55 2.244 1_455 S
O43 Co42 2.216 . S
O43 C50 1.247 . S
O44 Co42 2.091 . S
O44 C50 1.261 . S
C45 O54 1.247 1_655 S
C45 O55 1.272 . S
O46 Co42 2.004 . S
O46 C51 1.259 . S
Co47 O48 2.061 . S
Co47 O53 2.052 . S
Co47 O55 2.135 1_455 S
O48 Co47 2.061 . S
O48 C51 1.235 . S
C49 O52 1.238 . S
C49 O53 1.241 . S
C50 O43 1.247 . S
C50 O44 1.261 . S
C51 O46 1.259 . S
C51 O48 1.235 . S
O52 Co42 2.021 . S
O52 C49 1.238 . S
O53 Co47 2.052 . S
O53 C49 1.241 . S
O54 Co42 2.137 . S
O54 C45 1.247 1_455 S
O55 Co42 2.244 1_655 S
O55 C45 1.272 . S
O55 Co47 2.135 1_655 S
Co56 O57 2.216 . S
Co56 O58 2.091 . S
Co56 O60 2.004 . S
Co56 O66 2.021 . S
Co56 O68 2.137 . S
Co56 O69 2.244 . S
O57 Co56 2.216 . S
O57 C64 1.247 . S
O58 Co56 2.091 . S
O58 C64 1.261 . S
C59 O68 1.247 . S
C59 O69 1.272 . S
O60 Co56 2.004 . S
O60 C65 1.259 . S
Co61 O62 2.061 . S
Co61 O67 2.052 . S
Co61 O69 2.135 . S
O62 Co61 2.061 . S
O62 C65 1.235 . S
C63 O66 1.238 . S
C63 O67 1.241 . S
C64 O57 1.247 . S
C64 O58 1.261 . S
C65 O60 1.259 . S
C65 O62 1.235 . S
O66 Co56 2.021 . S
O66 C63 1.238 . S
O67 Co61 2.052 . S
O67 C63 1.241 . S
O68 Co56 2.137 . S
O68 C59 1.247 . S
O69 Co56 2.244 . S
O69 C59 1.272 . S
O69 Co61 2.135 . S
Co70 O71 2.216 . S
Co70 O72 2.091 . S
Co70 O74 2.004 . S
Co70 O80 2.021 . S
Co70 O82 2.137 . S
Co70 O83 2.244 1_455 S
O71 Co70 2.216 . S
O71 C78 1.247 . S
O72 Co70 2.091 . S
O72 C78 1.261 . S
C73 O82 1.247 1_655 S
C73 O83 1.272 . S
O74 Co70 2.004 . S
O74 C79 1.259 . S
Co75 O76 2.061 . S
Co75 O81 2.052 . S
Co75 O83 2.135 1_455 S
O76 Co75 2.061 . S
O76 C79 1.235 . S
C77 O80 1.238 . S
C77 O81 1.241 . S
C78 O71 1.247 . S
C78 O72 1.261 . S
C79 O74 1.259 . S
C79 O76 1.235 . S
O80 Co70 2.021 . S
O80 C77 1.238 . S
O81 Co75 2.052 . S
O81 C77 1.241 . S
O82 Co70 2.137 . S
O82 C73 1.247 1_455 S
O83 Co70 2.244 1_655 S
O83 C73 1.272 . S
O83 Co75 2.135 1_655 S
Co84 O85 2.216 . S
Co84 O86 2.091 . S
Co84 O88 2.004 . S
Co84 O94 2.021 . S
Co84 O96 2.137 . S
Co84 O97 2.244 1_545 S
O85 Co84 2.216 . S
O85 C92 1.247 . S
O86 Co84 2.091 . S
O86 C92 1.261 . S
C87 O96 1.247 1_565 S
C87 O97 1.272 . S
O88 Co84 2.004 . S
O88 C93 1.259 . S
Co89 O90 2.061 . S
Co89 O95 2.052 . S
Co89 O97 2.135 1_545 S
O90 Co89 2.061 . S
O90 C93 1.235 . S
C91 O94 1.238 . S
C91 O95 1.241 . S
C92 O85 1.247 . S
C92 O86 1.261 . S
C93 O88 1.259 . S
C93 O90 1.235 . S
O94 Co84 2.021 . S
O94 C91 1.238 . S
O95 Co89 2.052 . S
O95 C91 1.241 . S
O96 Co84 2.137 . S
O96 C87 1.247 1_545 S
O97 Co84 2.244 1_565 S
O97 C87 1.272 . S
O97 Co89 2.135 1_565 S
Co98 O99 2.216 . S
Co98 O100 2.091 . S
Co98 O102 2.004 . S
Co98 O108 2.021 . S
Co98 O110 2.137 . S
Co98 O111 2.244 . S
O99 Co98 2.216 . S
O99 C106 1.247 . S
O100 Co98 2.091 . S
O100 C106 1.261 . S
C101 O110 1.247 . S
C101 O111 1.272 . S
O102 Co98 2.004 . S
O102 C107 1.259 . S
Co103 O104 2.061 . S
Co103 O109 2.052 . S
Co103 O111 2.135 . S
O104 Co103 2.061 . S
O104 C107 1.235 . S
C105 O108 1.238 . S
C105 O109 1.241 . S
C106 O99 1.247 . S
C106 O100 1.261 . S
C107 O102 1.259 . S
C107 O104 1.235 . S
O108 Co98 2.021 . S
O108 C105 1.238 . S
O109 Co103 2.052 . S
O109 C105 1.241 . S
O110 Co98 2.137 . S
O110 C101 1.247 . S
O111 Co98 2.244 . S
O111 C101 1.272 . S
O111 Co103 2.135 . S
H112 C118 0.930 . S
H113 C122 0.930 . S
H114 C127 0.929 . S
H115 C125 0.929 . S
H116 C120 0.929 . S
H117 C126 0.929 . S
C118 H112 0.930 . S
C118 C119 1.367 . S
C118 C126 1.378 . S
C119 C118 1.367 . S
C119 C127 1.433 . S
C120 H116 0.929 . S
C120 C122 1.378 . S
C120 C124 1.350 . S
C121 C124 1.463 1_554 S
C121 C126 1.350 . S
C121 N129 1.427 . S
C122 H113 0.930 . S
C122 C120 1.378 . S
C122 C123 1.367 . S
C123 C122 1.367 . S
C123 C125 1.433 . S
C124 C120 1.350 . S
C124 C121 1.463 1_556 S
C124 N128 1.427 . S
C125 H115 0.929 . S
C125 C123 1.433 . S
C125 N128 1.384 . S
C126 H117 0.929 . S
C126 C118 1.378 . S
C126 C121 1.350 . S
C127 H114 0.929 . S
C127 C119 1.433 . S
C127 N129 1.384 . S
N128 C124 1.427 . S
N128 C125 1.384 . S
N129 C121 1.427 . S
N129 C127 1.384 . S
H130 C136 0.930 . S
H131 C140 0.930 . S
H132 C145 0.929 . S
H133 C143 0.929 . S
H134 C138 0.929 . S
H135 C144 0.929 . S
C136 H130 0.930 . S
C136 C137 1.367 . S
C136 C144 1.378 . S
C137 C136 1.367 . S
C137 C145 1.433 . S
C138 H134 0.929 . S
C138 C140 1.378 . S
C138 C142 1.350 . S
C139 C142 1.463 . S
C139 C144 1.350 . S
C139 N147 1.427 . S
C140 H131 0.930 . S
C140 C138 1.378 . S
C140 C141 1.367 . S
C141 C140 1.367 . S
C141 C143 1.433 . S
C142 C138 1.350 . S
C142 C139 1.463 . S
C142 N146 1.427 . S
C143 H133 0.929 . S
C143 C141 1.433 . S
C143 N146 1.384 . S
C144 H135 0.929 . S
C144 C136 1.378 . S
C144 C139 1.350 . S
C145 H132 0.929 . S
C145 C137 1.433 . S
C145 N147 1.384 . S
N146 C142 1.427 . S
N146 C143 1.384 . S
N147 C139 1.427 . S
N147 C145 1.384 . S
H148 C154 0.930 . S
H149 C158 0.930 . S
H150 C163 0.929 . S
H151 C161 0.929 . S
H152 C156 0.929 . S
H153 C162 0.929 . S
C154 H148 0.930 . S
C154 C155 1.367 . S
C154 C162 1.378 . S
C155 C154 1.367 . S
C155 C163 1.433 . S
C156 H152 0.929 . S
C156 C158 1.378 . S
C156 C160 1.350 . S
C157 C160 1.463 1_556 S
C157 C162 1.350 . S
C157 N165 1.427 . S
C158 H149 0.930 . S
C158 C156 1.378 . S
C158 C159 1.367 . S
C159 C158 1.367 . S
C159 C161 1.433 . S
C160 C156 1.350 . S
C160 C157 1.463 1_554 S
C160 N164 1.427 . S
C161 H151 0.929 . S
C161 C159 1.433 . S
C161 N164 1.384 . S
C162 H153 0.929 . S
C162 C154 1.378 . S
C162 C157 1.350 . S
C163 H150 0.929 . S
C163 C155 1.433 . S
C163 N165 1.384 . S
N164 C160 1.427 . S
N164 C161 1.384 . S
N165 C157 1.427 . S
N165 C163 1.384 . S
H166 C172 0.930 . S
H167 C176 0.930 . S
H168 C181 0.929 . S
H169 C179 0.929 . S
H170 C174 0.929 . S
H171 C180 0.929 . S
C172 H166 0.930 . S
C172 C173 1.367 . S
C172 C180 1.378 . S
C173 C172 1.367 . S
C173 C181 1.433 . S
C174 H170 0.929 . S
C174 C176 1.378 . S
C174 C178 1.350 . S
C175 C178 1.463 . S
C175 C180 1.350 . S
C175 N183 1.427 . S
C176 H167 0.930 . S
C176 C174 1.378 . S
C176 C177 1.367 . S
C177 C176 1.367 . S
C177 C179 1.433 . S
C178 C174 1.350 . S
C178 C175 1.463 . S
C178 N182 1.427 . S
C179 H169 0.929 . S
C179 C177 1.433 . S
C179 N182 1.384 . S
C180 H171 0.929 . S
C180 C172 1.378 . S
C180 C175 1.350 . S
C181 H168 0.929 . S
C181 C173 1.433 . S
C181 N183 1.384 . S
N182 C178 1.427 . S
N182 C179 1.384 . S
N183 C175 1.427 . S
N183 C181 1.384 . S
H184 C190 0.930 . S
H185 C194 0.930 . S
H186 C199 0.929 . S
H187 C197 0.929 . S
H188 C192 0.929 . S
H189 C198 0.929 . S
C190 H184 0.930 . S
C190 C191 1.367 . S
C190 C198 1.378 . S
C191 C190 1.367 . S
C191 C199 1.433 . S
C192 H188 0.929 . S
C192 C194 1.378 . S
C192 C196 1.350 . S
C193 C196 1.463 . S
C193 C198 1.350 . S
C193 N201 1.427 . S
C194 H185 0.930 . S
C194 C192 1.378 . S
C194 C195 1.367 . S
C195 C194 1.367 . S
C195 C197 1.433 . S
C196 C192 1.350 . S
C196 C193 1.463 . S
C196 N200 1.427 . S
C197 H187 0.929 . S
C197 C195 1.433 . S
C197 N200 1.384 . S
C198 H189 0.929 . S
C198 C190 1.378 . S
C198 C193 1.350 . S
C199 H186 0.929 . S
C199 C191 1.433 . S
C199 N201 1.384 . S
N200 C196 1.427 . S
N200 C197 1.384 . S
N201 C193 1.427 . S
N201 C199 1.384 . S
H202 C208 0.930 . S
H203 C212 0.930 . S
H204 C217 0.929 . S
H205 C215 0.929 . S
H206 C210 0.929 . S
H207 C216 0.929 . S
C208 H202 0.930 . S
C208 C209 1.367 . S
C208 C216 1.378 . S
C209 C208 1.367 . S
C209 C217 1.433 . S
C210 H206 0.929 . S
C210 C212 1.378 . S
C210 C214 1.350 . S
C211 C214 1.463 . S
C211 C216 1.350 . S
C211 N219 1.427 . S
C212 H203 0.930 . S
C212 C210 1.378 . S
C212 C213 1.367 . S
C213 C212 1.367 . S
C213 C215 1.433 . S
C214 C210 1.350 . S
C214 C211 1.463 . S
C214 N218 1.427 . S
C215 H205 0.929 . S
C215 C213 1.433 . S
C215 N218 1.384 . S
C216 H207 0.929 . S
C216 C208 1.378 . S
C216 C211 1.350 . S
C217 H204 0.929 . S
C217 C209 1.433 . S
C217 N219 1.384 . S
N218 C214 1.427 . S
N218 C215 1.384 . S
N219 C211 1.427 . S
N219 C217 1.384 . S
H220 C226 0.930 1_565 S
H221 C230 0.930 . S
H222 C235 0.929 . S
H223 C233 0.929 . S
H224 C228 0.929 . S
H225 C234 0.929 . S
C226 H220 0.930 1_545 S
C226 C227 1.367 . S
C226 C234 1.378 . S
C227 C226 1.367 . S
C227 C235 1.433 . S
C228 H224 0.929 . S
C228 C230 1.378 . S
C228 C232 1.350 . S
C229 C232 1.463 . S
C229 C234 1.350 . S
C229 N237 1.427 . S
C230 H221 0.930 . S
C230 C228 1.378 . S
C230 C231 1.367 . S
C231 C230 1.367 . S
C231 C233 1.433 . S
C232 C228 1.350 . S
C232 C229 1.463 . S
C232 N236 1.427 . S
C233 H223 0.929 . S
C233 C231 1.433 . S
C233 N236 1.384 . S
C234 H225 0.929 . S
C234 C226 1.378 . S
C234 C229 1.350 . S
C235 H222 0.929 . S
C235 C227 1.433 . S
C235 N237 1.384 . S
N236 C232 1.427 . S
N236 C233 1.384 . S
N237 C229 1.427 . S
N237 C235 1.384 . S
H238 C244 0.930 . S
H239 C248 0.930 . S
H240 C253 0.929 . S
H241 C251 0.929 . S
H242 C246 0.929 . S
H243 C252 0.929 . S
C244 H238 0.930 . S
C244 C245 1.367 . S
C244 C252 1.378 . S
C245 C244 1.367 . S
C245 C253 1.433 . S
C246 H242 0.929 . S
C246 C248 1.378 . S
C246 C250 1.350 . S
C247 C250 1.463 . S
C247 C252 1.350 . S
C247 N255 1.427 . S
C248 H239 0.930 . S
C248 C246 1.378 . S
C248 C249 1.367 . S
C249 C248 1.367 . S
C249 C251 1.433 . S
C250 C246 1.350 . S
C250 C247 1.463 . S
C250 N254 1.427 . S
C251 H241 0.929 . S
C251 C249 1.433 . S
C251 N254 1.384 . S
C252 H243 0.929 . S
C252 C244 1.378 . S
C252 C247 1.350 . S
C253 H240 0.929 . S
C253 C245 1.433 . S
C253 N255 1.384 . S
N254 C250 1.427 . S
N254 C251 1.384 . S
N255 C247 1.427 . S
N255 C253 1.384 . S
H256 C262 0.930 . S
H257 C266 0.930 . S
H258 C271 0.929 . S
H259 C269 0.929 . S
H260 C264 0.929 . S
H261 C270 0.929 . S
C262 H256 0.930 . S
C262 C263 1.367 . S
C262 C270 1.378 . S
C263 C262 1.367 . S
C263 C271 1.433 . S
C264 H260 0.929 . S
C264 C266 1.378 . S
C264 C268 1.350 . S
C265 C268 1.463 . S
C265 C270 1.350 . S
C265 N273 1.427 . S
C266 H257 0.930 . S
C266 C264 1.378 . S
C266 C267 1.367 . S
C267 C266 1.367 . S
C267 C269 1.433 . S
C268 C264 1.350 . S
C268 C265 1.463 . S
C268 N272 1.427 . S
C269 H259 0.929 . S
C269 C267 1.433 . S
C269 N272 1.384 . S
C270 H261 0.929 . S
C270 C262 1.378 . S
C270 C265 1.350 . S
C271 H258 0.929 . S
C271 C263 1.433 . S
C271 N273 1.384 . S
N272 C268 1.427 . S
N272 C269 1.384 . S
N273 C265 1.427 . S
N273 C271 1.384 . S
H274 C280 0.930 . S
H275 C284 0.930 . S
H276 C289 0.929 1_455 S
H277 C287 0.929 . S
H278 C282 0.929 . S
H279 C288 0.929 . S
C280 H274 0.930 . S
C280 C281 1.367 . S
C280 C288 1.378 . S
C281 C280 1.367 . S
C281 C289 1.433 . S
C282 H278 0.929 . S
C282 C284 1.378 . S
C282 C286 1.350 . S
C283 C286 1.463 . S
C283 C288 1.350 . S
C283 N291 1.427 . S
C284 H275 0.930 . S
C284 C282 1.378 . S
C284 C285 1.367 . S
C285 C284 1.367 . S
C285 C287 1.433 . S
C286 C282 1.350 . S
C286 C283 1.463 . S
C286 N290 1.427 . S
C287 H277 0.929 . S
C287 C285 1.433 . S
C287 N290 1.384 . S
C288 H279 0.929 . S
C288 C280 1.378 . S
C288 C283 1.350 . S
C289 H276 0.929 1_655 S
C289 C281 1.433 . S
C289 N291 1.384 . S
N290 C286 1.427 . S
N290 C287 1.384 . S
N291 C283 1.427 . S
N291 C289 1.384 . S
H292 C298 0.930 1_455 S
H293 C302 0.930 . S
H294 C307 0.929 . S
H295 C305 0.927 1_545 S
H296 C300 0.929 . S
H297 C306 0.929 . S
C298 H292 0.930 1_655 S
C298 C299 1.367 . S
C298 C306 1.378 . S
C299 C298 1.367 . S
C299 C307 1.433 . S
C300 H296 0.929 . S
C300 C302 1.378 . S
C300 C304 1.350 . S
C301 C304 1.463 . S
C301 C306 1.350 . S
C301 N309 1.427 . S
C302 H293 0.930 . S
C302 C300 1.378 . S
C302 C303 1.367 . S
C303 C302 1.367 . S
C303 C305 1.434 . S
C304 C300 1.350 . S
C304 C301 1.463 . S
C304 N308 1.427 . S
C305 H295 0.927 1_565 S
C305 C303 1.434 . S
C305 N308 1.385 . S
C306 H297 0.929 . S
C306 C298 1.378 . S
C306 C301 1.350 . S
C307 H294 0.929 . S
C307 C299 1.433 . S
C307 N309 1.384 . S
N308 C304 1.427 . S
N308 C305 1.385 . S
N309 C301 1.427 . S
N309 C307 1.384 . S
H310 C316 0.930 . S
H311 C320 0.930 . S
H312 C325 0.929 . S
H313 C323 0.929 . S
H314 C318 0.929 . S
H315 C324 0.929 . S
C316 H310 0.930 . S
C316 C317 1.367 . S
C316 C324 1.378 . S
C317 C316 1.367 . S
C317 C325 1.433 . S
C318 H314 0.929 . S
C318 C320 1.378 . S
C318 C322 1.350 . S
C319 C322 1.463 . S
C319 C324 1.350 . S
C319 N327 1.427 . S
C320 H311 0.930 . S
C320 C318 1.378 . S
C320 C321 1.367 . S
C321 C320 1.367 . S
C321 C323 1.433 . S
C322 C318 1.350 . S
C322 C319 1.463 . S
C322 N326 1.427 . S
C323 H313 0.929 . S
C323 C321 1.433 . S
C323 N326 1.384 . S
C324 H315 0.929 . S
C324 C316 1.378 . S
C324 C319 1.350 . S
C325 H312 0.929 . S
C325 C317 1.433 . S
C325 N327 1.384 . S
N326 C322 1.427 . S
N326 C323 1.384 . S
N327 C319 1.427 . S
N327 C325 1.384 . S
H328 C334 0.930 . S
H329 C338 0.930 . S
H330 C343 0.929 . S
H331 C341 0.929 . S
H332 C336 0.929 . S
H333 C342 0.929 . S
C334 H328 0.930 . S
C334 C335 1.367 . S
C334 C342 1.378 . S
C335 C334 1.367 . S
C335 C343 1.433 . S
C336 H332 0.929 . S
C336 C338 1.378 . S
C336 C340 1.350 . S
C337 C340 1.463 . S
C337 C342 1.350 . S
C337 N345 1.427 . S
C338 H329 0.930 . S
C338 C336 1.378 . S
C338 C339 1.367 . S
C339 C338 1.367 . S
C339 C341 1.433 . S
C340 C336 1.350 . S
C340 C337 1.463 . S
C340 N344 1.427 . S
C341 H331 0.929 . S
C341 C339 1.433 . S
C341 N344 1.384 . S
C342 H333 0.929 . S
C342 C334 1.378 . S
C342 C337 1.350 . S
C343 H330 0.929 . S
C343 C335 1.433 . S
C343 N345 1.384 . S
N344 C340 1.427 . S
N344 C341 1.384 . S
N345 C337 1.427 . S
N345 C343 1.384 . S
H346 C352 0.930 . S
H347 C356 0.930 . S
H348 C361 0.929 . S
H349 C359 0.929 . S
H350 C354 0.929 . S
H351 C360 0.929 . S
C352 H346 0.930 . S
C352 C353 1.367 . S
C352 C360 1.378 . S
C353 C352 1.367 . S
C353 C361 1.433 . S
C354 H350 0.929 . S
C354 C356 1.378 . S
C354 C358 1.350 . S
C355 C358 1.463 . S
C355 C360 1.350 . S
C355 N363 1.427 . S
C356 H347 0.930 . S
C356 C354 1.378 . S
C356 C357 1.367 . S
C357 C356 1.367 . S
C357 C359 1.433 . S
C358 C354 1.350 . S
C358 C355 1.463 . S
C358 N362 1.427 . S
C359 H349 0.929 . S
C359 C357 1.433 . S
C359 N362 1.384 . S
C360 H351 0.929 . S
C360 C352 1.378 . S
C360 C355 1.350 . S
C361 H348 0.929 . S
C361 C353 1.433 . S
C361 N363 1.384 . S
N362 C358 1.427 . S
N362 C359 1.384 . S
N363 C355 1.427 . S
N363 C361 1.384 . S
H364 C370 0.930 . S
H365 C374 0.930 . S
H366 C379 0.929 . S
H367 C377 0.929 . S
H368 C372 0.929 . S
H369 C378 0.929 . S
C370 H364 0.930 . S
C370 C371 1.367 . S
C370 C378 1.378 . S
C371 C370 1.367 . S
C371 C379 1.433 . S
C372 H368 0.929 . S
C372 C374 1.378 . S
C372 C376 1.350 . S
C373 C376 1.463 . S
C373 C378 1.350 . S
C373 N381 1.427 . S
C374 H365 0.930 . S
C374 C372 1.378 . S
C374 C375 1.367 . S
C375 C374 1.367 . S
C375 C377 1.433 . S
C376 C372 1.350 . S
C376 C373 1.463 . S
C376 N380 1.427 . S
C377 H367 0.929 . S
C377 C375 1.433 . S
C377 N380 1.384 . S
C378 H369 0.929 . S
C378 C370 1.378 . S
C378 C373 1.350 . S
C379 H366 0.929 . S
C379 C371 1.433 . S
C379 N381 1.384 . S
N380 C376 1.427 . S
N380 C377 1.384 . S
N381 C373 1.427 . S
N381 C379 1.384 . S
H382 C388 0.930 . S
H383 C392 0.930 . S
H384 C397 0.929 . S
H385 C395 0.929 . S
H386 C390 0.929 . S
H387 C396 0.929 . S
C388 H382 0.930 . S
C388 C389 1.367 . S
C388 C396 1.378 . S
C389 C388 1.367 . S
C389 C397 1.433 . S
C390 H386 0.929 . S
C390 C392 1.378 . S
C390 C394 1.350 . S
C391 C394 1.463 . S
C391 C396 1.350 . S
C391 N399 1.427 . S
C392 H383 0.930 . S
C392 C390 1.378 . S
C392 C393 1.367 . S
C393 C392 1.367 . S
C393 C395 1.433 . S
C394 C390 1.350 . S
C394 C391 1.463 . S
C394 N398 1.427 . S
C395 H385 0.929 . S
C395 C393 1.433 . S
C395 N398 1.384 . S
C396 H387 0.929 . S
C396 C388 1.378 . S
C396 C391 1.350 . S
C397 H384 0.929 . S
C397 C389 1.433 . S
C397 N399 1.384 . S
N398 C394 1.427 . S
N398 C395 1.384 . S
N399 C391 1.427 . S
N399 C397 1.384 . S
C119 C7 1.549 . S
C123 C63 1.545 . S
C137 C21 1.542 . S
C141 C77 1.550 . S
C155 C91 1.539 . S
C159 C35 1.546 . S
C173 C105 1.549 . S
C177 C49 1.539 . S
C191 C8 1.303 . S
C195 C36 1.301 . S
C209 C22 1.306 . S
C213 C50 1.304 . S
C227 C92 1.308 . S
C231 C64 1.306 . S
C245 C78 1.301 . S
C249 C106 1.303 . S
C263 C79 1.480 . S
C267 C9 1.472 . S
C281 C23 1.478 1_655 S
C285 C93 1.476 . S
C299 C107 1.473 1_655 S
C303 C37 1.480 1_565 S
C317 C51 1.475 . S
C321 C65 1.477 1_565 S
C335 C87 1.177 . S
C339 C45 1.185 . S
C353 C3 1.185 . S
C357 C101 1.185 . S
C371 C17 1.182 . S
C375 C59 1.176 . S
C389 C73 1.176 . S
C393 C31 1.182 . S
