data_sym_7_mc_4
_audit_creation_date              2019-06-06
_audit_creation_method            'tobacco_3.0'
_symmetry_space_group_name_H-M    'P1'
_symmetry_Int_Tables_number       1
_symmetry_cell_setting            triclinic
loop_
_symmetry_equiv_pos_as_xyz
  x,y,z
_cell_length_a                    20.0000
_cell_length_b                    20.0000
_cell_length_c                    20.0000
_cell_angle_alpha                 90.0000
_cell_angle_beta                  90.0000
_cell_angle_gamma                 90.0000
loop_
_atom_site_label
_atom_site_type_symbol
_atom_site_fract_x
_atom_site_fract_y
_atom_site_fract_z
_atom_site_U_iso_or_equiv
_atom_site_adp_type
_atom_site_occupancy
_atom_site_charge
O1         O    0.0105700000    0.1232300000   -0.0686800000   0.00000  Uiso   1.00       -0.850523
O2         O   -0.1075100000    0.0555200000   -0.0731500000   0.00000  Uiso   1.00       -0.820972
X3         C   -0.1172100000    0.0014200000   -0.1057200000   0.00000  Uiso   1.00        0.984103
O4         O   -0.1078000000   -0.0536000000   -0.0746500000   0.00000  Uiso   1.00        -0.82132
O5         O    0.0099000000   -0.1220600000   -0.0720600000   0.00000  Uiso   1.00       -0.847765
X6         C    0.0633800000   -0.1036100000   -0.1017400000   0.00000  Uiso   1.00        1.029363
O7         O    0.1045200000   -0.0678000000   -0.0684800000   0.00000  Uiso   1.00       -0.775379
O8         O    0.1048900000    0.0683800000   -0.0666100000   0.00000  Uiso   1.00       -0.777267
X9         C    0.0639400000    0.1053100000   -0.0988700000   0.00000  Uiso   1.00        1.028876
O10        O    0.0063000000    0.1212900000    0.0737400000   0.00000  Uiso   1.00       -0.850485
O11        O   -0.1117700000    0.0535700000    0.0692800000   0.00000  Uiso   1.00       -0.821123
X12        C   -0.1233600000   -0.0013900000    0.0997200000   0.00000  Uiso   1.00        0.984295
O13        O   -0.1120700000   -0.0555500000    0.0677800000   0.00000  Uiso   1.00       -0.821404
O14        O    0.0056400000   -0.1240100000    0.0703700000   0.00000  Uiso   1.00       -0.847468
X15        C    0.0572200000   -0.1064200000    0.1036900000   0.00000  Uiso   1.00        1.029021
O16        O    0.1002500000   -0.0697500000    0.0739400000   0.00000  Uiso   1.00       -0.775657
O17        O    0.1006200000    0.0664300000    0.0758200000   0.00000  Uiso   1.00        -0.77713
X18        C    0.0577900000    0.1025000000    0.1065700000   0.00000  Uiso   1.00        1.028642
Cr19      Cr   -0.0484700000    0.0846900000    0.0003100000   0.00000  Uiso   1.00        1.937355
Cr20      Cr   -0.0489400000   -0.0851100000   -0.0020200000   0.00000  Uiso   1.00        1.932128
Cr21      Cr    0.0982900000   -0.0006700000    0.0035400000   0.00000  Uiso   1.00        1.390952
O22        O    0.0003000000   -0.0003600000    0.0006100000   0.00000  Uiso   1.00       -1.228006
loop_
_geom_bond_atom_site_label_1
_geom_bond_atom_site_label_2
_geom_bond_distance
_geom_bond_site_symmetry_2
_ccdc_geom_bond_type
O1         Cr19 1.973       .   S
O1           X9 1.278       .   A
O2           X3 1.278       .   A
O2         Cr19 1.973       .   S
X3           O4 1.278       .   A
O4         Cr20 1.973       .   S
O5           X6 1.278       .   A
O5         Cr20 1.973       .   S
X6           O7 1.278       .   A
O7         Cr21 1.973       .   S
O8           X9 1.278       .   A
O8         Cr21 1.973       .   S
O10        Cr19 1.973       .   S
O10         X18 1.278       .   A
O11         X12 1.278       .   A
O11        Cr19 1.973       .   S
X12         O13 1.278       .   A
O13        Cr20 1.973       .   S
O14         X15 1.278       .   A
O14        Cr20 1.973       .   S
X15         O16 1.278       .   A
O16        Cr21 1.973       .   S
O17         X18 1.278       .   A
O17        Cr21 1.973       .   S
Cr19        O22 1.961       .   S
Cr20        O22 1.961       .   S
Cr21        O22 1.961       .   S
