data_1AN
_audit_creation_date              2018-08-15
_audit_creation_method            'Materials Studio'
_symmetry_space_group_name_H-M    'P1'
_symmetry_Int_Tables_number       1
_symmetry_cell_setting            triclinic
loop_
_symmetry_equiv_pos_as_xyz
  x,y,z
_cell_length_a                    10.0000
_cell_length_b                    10.0000
_cell_length_c                    10.0000
_cell_angle_alpha                 90.0000
_cell_angle_beta                  90.0000
_cell_angle_gamma                 90.0000
loop_
_atom_site_label
_atom_site_type_symbol
_atom_site_fract_x
_atom_site_fract_y
_atom_site_fract_z
_atom_site_U_iso_or_equiv
_atom_site_adp_type
_atom_site_occupancy
_atom_site_charge
C1     C    0.27679   0.15821   0.30141   0.00000  Uiso   1.00   0.00 -0.02191
X2    Fr    0.23879   0.05439   0.32922   0.00000  Uiso   1.00   0.00 0
X3    Fr    0.23879   0.18603   0.19759   0.00000  Uiso   1.00   0.00 0
X4    Fr    0.23879   0.23421   0.37741   0.00000  Uiso   1.00   0.00 0
X5    Fr    0.39079   0.15821   0.30141   0.00000  Uiso   1.00   0.00 0
loop_
_geom_bond_atom_site_label_1
_geom_bond_atom_site_label_2
_geom_bond_distance
_geom_bond_site_symmetry_2
_ccdc_geom_bond_type
C1     X2     1.140   .     S
C1     X3     1.140   .     S
C1     X4     1.140   .     S
C1     X5     1.140   .     S
