data_sym_12_mc_11
_audit_creation_date              2018-09-25
_audit_creation_method            'tobacco_3.0'
_symmetry_space_group_name_H-M    'P1'
_symmetry_Int_Tables_number       1
_symmetry_cell_setting            triclinic
loop_
_symmetry_equiv_pos_as_xyz
  x,y,z
_cell_length_a                    20.0000
_cell_length_b                    20.0000
_cell_length_c                    20.0000
_cell_angle_alpha                 90.0000
_cell_angle_beta                  90.0000
_cell_angle_gamma                 90.0000
loop_
_atom_site_label
_atom_site_type_symbol
_atom_site_fract_x
_atom_site_fract_y
_atom_site_fract_z
_atom_site_U_iso_or_equiv
_atom_site_adp_type
_atom_site_occupancy
_atom_site_charge
O1         O   -0.1764700000    0.0000000000   -0.0986400000   0.00000  Uiso   1.00       -0.861922
O2         O    0.1764700000    0.0000000000   -0.0986400000   0.00000  Uiso   1.00       -0.863582
O3         O    0.0000000000    0.0986400000   -0.1764700000   0.00000  Uiso   1.00       -0.880269
O4         O    0.0000000000   -0.0986400000   -0.1764700000   0.00000  Uiso   1.00       -0.867827
O5         O    0.0000000000   -0.1764700000   -0.0986400000   0.00000  Uiso   1.00       -0.863731
O6         O    0.0000000000    0.1764700000   -0.0986400000   0.00000  Uiso   1.00       -0.877439
O7         O    0.0986400000    0.0000000000   -0.1764700000   0.00000  Uiso   1.00       -0.862222
O8         O   -0.0986400000    0.0000000000   -0.1764700000   0.00000  Uiso   1.00       -0.858081
Zr9       Zr    0.0000000000    0.0000000000   -0.1241000000   0.00000  Uiso   1.00         2.84311
O10        O    0.0580600000   -0.0580600000   -0.0580600000   0.00000  Uiso   1.00       -1.077843
O11        O   -0.0580600000    0.0580600000   -0.0580600000   0.00000  Uiso   1.00       -1.085134
X12        C   -0.1589700000    0.0000000000   -0.1589700000   0.00000  Uiso   1.00        1.069164
X13        C    0.1589700000    0.0000000000   -0.1589700000   0.00000  Uiso   1.00        1.068586
X14        C    0.0000000000    0.1589700000   -0.1589700000   0.00000  Uiso   1.00        1.098413
X15        C    0.0000000000   -0.1589700000   -0.1589700000   0.00000  Uiso   1.00        1.076206
H16        H    0.0931500000    0.0931500000   -0.0931500000   0.00000  Uiso   1.00        0.331786
O17        O    0.0580600000    0.0580600000   -0.0580600000   0.00000  Uiso   1.00       -1.287366
H18        H   -0.0931500000   -0.0931500000   -0.0931500000   0.00000  Uiso   1.00        0.328517
O19        O   -0.0580600000   -0.0580600000   -0.0580600000   0.00000  Uiso   1.00       -1.304152
O20        O    0.1764700000    0.0000000000    0.0986400000   0.00000  Uiso   1.00        -0.86187
O21        O   -0.1764700000    0.0000000000    0.0986400000   0.00000  Uiso   1.00       -0.876828
O22        O    0.0986400000    0.1764700000    0.0000000000   0.00000  Uiso   1.00       -0.862627
O23        O    0.0986400000   -0.1764700000    0.0000000000   0.00000  Uiso   1.00       -0.863124
O24        O   -0.0986400000   -0.1764700000    0.0000000000   0.00000  Uiso   1.00       -0.860249
O25        O   -0.0986400000    0.1764700000    0.0000000000   0.00000  Uiso   1.00       -0.858297
O26        O    0.0000000000    0.0986400000    0.1764700000   0.00000  Uiso   1.00       -0.862004
O27        O    0.0000000000   -0.0986400000    0.1764700000   0.00000  Uiso   1.00       -0.856636
O28        O    0.0000000000    0.1764700000    0.0986400000   0.00000  Uiso   1.00       -0.867273
O29        O    0.0000000000   -0.1764700000    0.0986400000   0.00000  Uiso   1.00       -0.858857
O30        O    0.1764700000    0.0986400000    0.0000000000   0.00000  Uiso   1.00       -0.862837
O31        O   -0.1764700000    0.0986400000    0.0000000000   0.00000  Uiso   1.00       -0.860063
O32        O   -0.1764700000   -0.0986400000    0.0000000000   0.00000  Uiso   1.00       -0.856568
O33        O    0.1764700000   -0.0986400000    0.0000000000   0.00000  Uiso   1.00       -0.860639
O34        O    0.0986400000    0.0000000000    0.1764700000   0.00000  Uiso   1.00       -0.863601
O35        O   -0.0986400000    0.0000000000    0.1764700000   0.00000  Uiso   1.00       -0.876991
Zr36      Zr    0.1241000000    0.0000000000    0.0000000000   0.00000  Uiso   1.00        2.830983
Zr37      Zr   -0.1241000000    0.0000000000    0.0000000000   0.00000  Uiso   1.00        2.834979
Zr38      Zr    0.0000000000    0.1241000000    0.0000000000   0.00000  Uiso   1.00        2.840905
Zr39      Zr    0.0000000000   -0.1241000000    0.0000000000   0.00000  Uiso   1.00        2.833597
Zr40      Zr    0.0000000000    0.0000000000    0.1241000000   0.00000  Uiso   1.00        2.842185
O41        O   -0.0580600000   -0.0580600000    0.0580600000   0.00000  Uiso   1.00       -1.082697
O42        O    0.0580600000    0.0580600000    0.0580600000   0.00000  Uiso   1.00       -1.077705
X43        C    0.1589700000    0.0000000000    0.1589700000   0.00000  Uiso   1.00        1.068881
X44        C   -0.1589700000    0.0000000000    0.1589700000   0.00000  Uiso   1.00        1.095066
X45        C    0.1589700000    0.1589700000    0.0000000000   0.00000  Uiso   1.00         1.07062
X46        C    0.1589700000   -0.1589700000    0.0000000000   0.00000  Uiso   1.00        1.074215
X47        C   -0.1589700000   -0.1589700000    0.0000000000   0.00000  Uiso   1.00        1.070049
X48        C   -0.1589700000    0.1589700000    0.0000000000   0.00000  Uiso   1.00         1.06557
X49        C    0.0000000000    0.1589700000    0.1589700000   0.00000  Uiso   1.00         1.06982
X50        C    0.0000000000   -0.1589700000    0.1589700000   0.00000  Uiso   1.00        1.064953
H51        H   -0.0931500000    0.0931500000    0.0931500000   0.00000  Uiso   1.00        0.331731
O52        O   -0.0580600000    0.0580600000    0.0580600000   0.00000  Uiso   1.00        -1.29369
H53        H    0.0931500000   -0.0931500000    0.0931500000   0.00000  Uiso   1.00        0.331961
O54        O    0.0580600000   -0.0580600000    0.0580600000   0.00000  Uiso   1.00       -1.307519
loop_
_geom_bond_atom_site_label_1
_geom_bond_atom_site_label_2
_geom_bond_distance
_geom_bond_site_symmetry_2
_ccdc_geom_bond_type
O1         Zr37 2.234       .   S
O1          X12 1.256       .   A
O2         Zr36 2.234       .   S
O2          X13 1.256       .   A
O3          Zr9 2.234       .   S
O3          X14 1.256       .   A
O4          Zr9 2.234       .   S
O4          X15 1.256       .   A
O5         Zr39 2.234       .   S
O5          X15 1.256       .   A
O6         Zr38 2.234       .   S
O6          X14 1.256       .   A
O7          Zr9 2.234       .   S
O7          X13 1.256       .   A
O8          Zr9 2.234       .   S
O8          X12 1.256       .   A
Zr9         O10 2.107       .   S
Zr9         O11 2.107       .   S
Zr9         O19 2.107       .   S
Zr9         O17 2.107       .   S
O10        Zr36 2.107       .   S
O10        Zr39 2.107       .   S
O11        Zr37 2.107       .   S
O11        Zr38 2.107       .   S
H16         O17 1.216       .   S
O17        Zr36 2.107       .   S
O17        Zr38 2.107       .   S
H18         O19 1.216       .   S
O19        Zr37 2.107       .   S
O19        Zr39 2.107       .   S
O20        Zr36 2.234       .   S
O20         X43 1.256       .   A
O21        Zr37 2.234       .   S
O21         X44 1.256       .   A
O22        Zr38 2.234       .   S
O22         X45 1.256       .   A
O23        Zr39 2.234       .   S
O23         X46 1.256       .   A
O24        Zr39 2.234       .   S
O24         X47 1.256       .   A
O25        Zr38 2.234       .   S
O25         X48 1.256       .   A
O26        Zr40 2.234       .   S
O26         X49 1.256       .   A
O27        Zr40 2.234       .   S
O27         X50 1.256       .   A
O28        Zr38 2.234       .   S
O28         X49 1.256       .   A
O29        Zr39 2.234       .   S
O29         X50 1.256       .   A
O30        Zr36 2.234       .   S
O30         X45 1.256       .   A
O31        Zr37 2.234       .   S
O31         X48 1.256       .   A
O32        Zr37 2.234       .   S
O32         X47 1.256       .   A
O33        Zr36 2.234       .   S
O33         X46 1.256       .   A
O34        Zr40 2.234       .   S
O34         X43 1.256       .   A
O35        Zr40 2.234       .   S
O35         X44 1.256       .   A
Zr36        O42 2.107       .   S
Zr36        O54 2.107       .   S
Zr37        O41 2.107       .   S
Zr37        O52 2.107       .   S
Zr38        O42 2.107       .   S
Zr38        O52 2.107       .   S
Zr39        O41 2.107       .   S
Zr39        O54 2.107       .   S
Zr40        O41 2.107       .   S
Zr40        O42 2.107       .   S
Zr40        O54 2.107       .   S
Zr40        O52 2.107       .   S
H51         O52 1.216       .   S
H53         O54 1.216       .   S
