data_4c_pyrene_NU
_audit_creation_date              2020-02-03
_audit_creation_method            'Materials Studio'
_symmetry_space_group_name_H-M    'P1'
_symmetry_Int_Tables_number       1
_symmetry_cell_setting            triclinic
loop_
_symmetry_equiv_pos_as_xyz
  x,y,z
_cell_length_a                    20.0000
_cell_length_b                    20.0000
_cell_length_c                    20.0000
_cell_angle_alpha                 90.0000
_cell_angle_beta                  90.0000
_cell_angle_gamma                 90.0000
loop_
_atom_site_label
_atom_site_type_symbol
_atom_site_fract_x
_atom_site_fract_y
_atom_site_fract_z
_atom_site_U_iso_or_equiv
_atom_site_adp_type
_atom_site_occupancy
_atom_site_charge
X1     C    -0.17212  -0.04016  -0.03476   0.00000  Uiso   1.00  -0.105596
C2     C    -0.09625  -0.16671   0.00000   0.00000  Uiso   1.00   -0.04422
X3     C     0.08020  -0.19343   0.02538   0.00000  Uiso   1.00  -0.105418
C4     C     0.01925  -0.10003   0.00000   0.00000  Uiso   1.00   0.104038
C5     C    -0.01925  -0.03334   0.00000   0.00000  Uiso   1.00  -0.023361
C6     C    -0.09625  -0.03334   0.00000   0.00000  Uiso   1.00   0.102031
C7     C    -0.13475   0.03334   0.00000   0.00000  Uiso   1.00  -0.123434
C8     C    -0.09625   0.10003   0.00000   0.00000  Uiso   1.00  -0.123436
C9     C    -0.01925   0.10003   0.00000   0.00000  Uiso   1.00   0.102033
C10    C     0.01925   0.03334   0.00000   0.00000  Uiso   1.00  -0.023361
C11    C     0.09625  -0.10003   0.00000   0.00000  Uiso   1.00  -0.124693
C12    C     0.13475  -0.03334   0.00000   0.00000  Uiso   1.00  -0.124693
C13    C     0.09625   0.03334   0.00000   0.00000  Uiso   1.00   0.104038
X14    C     0.18330   0.03803   0.03090   0.00000  Uiso   1.00  -0.105419
C15    C     0.09625   0.16671   0.00000   0.00000  Uiso   1.00  -0.044219
X16    C    -0.06986   0.18773  -0.01519   0.00000  Uiso   1.00  -0.105597
H17    H    -0.19175   0.03334   0.00000   0.00000  Uiso   1.00   0.076656
H18    H    -0.12475   0.14939   0.00000   0.00000  Uiso   1.00   0.076657
H19    H     0.12475  -0.14939   0.00000   0.00000  Uiso   1.00   0.078411
H20    H     0.19175  -0.03334   0.00000   0.00000  Uiso   1.00   0.078411
H21    H    -0.12438  -0.21579   0.00701   0.00000  Uiso   1.00   0.042874
H22    H     0.12170   0.21706  -0.00812   0.00000  Uiso   1.00   0.042874
loop_
_geom_bond_atom_site_label_1
_geom_bond_atom_site_label_2
_geom_bond_distance
_geom_bond_site_symmetry_2
_ccdc_geom_bond_type
X1     C2      3.032   .     A
X1     C6      1.675   .     A
C2     X3      3.605   .     A
C2     H21     1.140   .     S
X3     C4      2.288   .     A
C4     C5      1.540   .     A
C4     C11     1.540   .     A
C5     C6      1.540   .     A
C5     C10     1.540   .     A
C6     C7      1.540   .     A
C7     C8      1.540   .     A
C7     H17     1.140   .     S
C8     C9      1.540   .     A
C8     H18     1.140   .     S
C9     C10     1.540   .     A
C9     X16     2.048   .     A
C10    C13     1.540   .     A
C11    C12     1.540   .     A
C11    H19     1.140   .     S
C12    C13     1.540   .     A
C12    H20     1.140   .     S
C13    X14     1.850   .     A
X14    C15     3.168   .     A
C15    X16     3.362   .     A
C15    H22     1.140   .     S
