data_sym_3_mc_0
_audit_creation_date              2018-09-25
_audit_creation_method            'tobacco_3.0'
_symmetry_space_group_name_H-M    'P1'
_symmetry_Int_Tables_number       1
_symmetry_cell_setting            triclinic
loop_
_symmetry_equiv_pos_as_xyz
  x,y,z
_cell_length_a                    20.0000
_cell_length_b                    20.0000
_cell_length_c                    20.0000
_cell_angle_alpha                 90.0000
_cell_angle_beta                  90.0000
_cell_angle_gamma                 90.0000
loop_
_atom_site_label
_atom_site_type_symbol
_atom_site_fract_x
_atom_site_fract_y
_atom_site_fract_z
_atom_site_U_iso_or_equiv
_atom_site_adp_type
_atom_site_occupancy
_atom_site_charge
N1         N   -0.1315900000    0.0402900000   -0.0014400000   0.00000  Uiso   1.00       -0.269934
N2         N   -0.0981400000    0.0966400000   -0.0019600000   0.00000  Uiso   1.00       -0.348512
C3         C   -0.1420400000    0.1476200000   -0.0027200000   0.00000  Uiso   1.00        0.013472
X4         C   -0.2067100000    0.1228200000   -0.0026900000   0.00000  Uiso   1.00        0.073722
C5         C   -0.1973400000    0.0542100000   -0.0018500000   0.00000  Uiso   1.00       -0.057266
H6         H   -0.1285200000    0.1999400000   -0.0032800000   0.00000  Uiso   1.00          0.0804
H7         H   -0.2365700000    0.0170200000   -0.0015700000   0.00000  Uiso   1.00        0.092401
Cu8       Cu   -0.0008900000    0.0975100000   -0.0016000000   0.00000  Uiso   1.00        0.441683
Cu9       Cu   -0.0875200000   -0.0465300000   -0.0002600000   0.00000  Uiso   1.00        0.419914
Cu10      Cu    0.0859400000   -0.0464000000    0.0004000000   0.00000  Uiso   1.00        0.438821
N11        N    0.0963600000    0.0967900000   -0.0012200000   0.00000  Uiso   1.00       -0.343795
N12        N    0.1298800000    0.0404900000   -0.0004400000   0.00000  Uiso   1.00       -0.286337
C13        C    0.1956200000    0.0545100000   -0.0003500000   0.00000  Uiso   1.00       -0.047342
X14        C    0.2048900000    0.1231300000   -0.0011100000   0.00000  Uiso   1.00        0.074816
C15        C    0.1401800000    0.1478300000   -0.0016400000   0.00000  Uiso   1.00        0.012782
H16        H    0.2349000000    0.0173800000    0.0002300000   0.00000  Uiso   1.00        0.089299
H17        H    0.1265900000    0.2001400000   -0.0023000000   0.00000  Uiso   1.00        0.080085
N18        N    0.0321800000   -0.1289600000    0.0011600000   0.00000  Uiso   1.00       -0.358284
N19        N   -0.0336300000   -0.1290100000    0.0009000000   0.00000  Uiso   1.00       -0.280088
C20        C   -0.0549300000   -0.1928200000    0.0015600000   0.00000  Uiso   1.00       -0.032481
X21        C   -0.0006500000   -0.2357500000    0.0022700000   0.00000  Uiso   1.00        0.053621
C22        C    0.0535600000   -0.1927400000    0.0019800000   0.00000  Uiso   1.00        0.034545
H23        H   -0.1068000000   -0.2079700000    0.0015400000   0.00000  Uiso   1.00        0.085612
H24        H    0.1054500000   -0.2078100000    0.0023500000   0.00000  Uiso   1.00         0.07394
loop_
_geom_bond_atom_site_label_1
_geom_bond_atom_site_label_2
_geom_bond_distance
_geom_bond_site_symmetry_2
_ccdc_geom_bond_type
N1           N2 1.311       .   A
N1           C5 1.344       .   A
N1          Cu9 1.947       .   S
N2           C3 1.346       .   A
N2          Cu8 1.945       .   S
C3           X4 1.385       .   A
C3           H6 1.081       .   S
X4           C5 1.385       .   A
C5           H7 1.081       .   S
Cu8         N11 1.945       .   S
Cu9         N19 1.971       .   S
Cu10        N12 1.947       .   S
Cu10        N18 1.970       .   S
N11         N12 1.311       .   A
N11         C15 1.345       .   A
N12         C13 1.344       .   A
C13         X14 1.385       .   A
C13         H16 1.081       .   S
X14         C15 1.385       .   A
C15         H17 1.081       .   S
N18         N19 1.316       .   A
N18         C22 1.345       .   A
N19         C20 1.345       .   A
C20         X21 1.384       .   A
C20         H23 1.081       .   S
X21         C22 1.384       .   A
C22         H24 1.081       .   S
