data_uranyl
_audit_creation_date              2018-07-19
_audit_creation_method            'Materials Studio'
_symmetry_space_group_name_H-M    'P1'
_symmetry_Int_Tables_number       1
_symmetry_cell_setting            triclinic
loop_
_symmetry_equiv_pos_as_xyz
  x,y,z
_cell_length_a                    20.0000
_cell_length_b                    20.0000
_cell_length_c                    20.0000
_cell_angle_alpha                 90.0000
_cell_angle_beta                  90.0000
_cell_angle_gamma                 90.0000
loop_
_atom_site_label
_atom_site_type_symbol
_atom_site_fract_x
_atom_site_fract_y
_atom_site_fract_z
_atom_site_U_iso_or_equiv
_atom_site_adp_type
_atom_site_occupancy
O1     O     4.51417   4.41757   6.23492   0.10000  Uiso   1.00
O2     O     4.59396   4.51417   6.41130   0.10000  Uiso   1.00
O3     O     4.41757   4.59396   6.31471   0.10000  Uiso   1.00
O4     O     4.41757   4.51417   6.23492   0.10000  Uiso   1.00
O5     O     4.51417   4.59396   6.41130   0.10000  Uiso   1.00
O6     O     4.59396   4.41757   6.31471   0.10000  Uiso   1.00
X7     C     4.44686   4.44686   6.20893   0.10000  Uiso   1.00
X8     C     4.61994   4.44686   6.38202   0.10000  Uiso   1.00
X9     C     4.44686   4.61994   6.38202   0.10000  Uiso   1.00
O10    O     4.58512   4.58512   6.24376   0.10000  Uiso   1.00
O11    O     4.44980   4.44980   6.37907   0.10000  Uiso   1.00
U12    U     4.51746   4.51746   6.31141   0.10000  Uiso   1.00
loop_
_geom_bond_atom_site_label_1
_geom_bond_atom_site_label_2
_geom_bond_distance
_geom_bond_site_symmetry_2
_ccdc_geom_bond_type
O1     X7      1.557   .     S
O1     U12     2.517   .     S
O2     X8      1.557   .     S
O2     U12     2.517   .     S
O3     X9      1.557   .     S
O3     U12     2.517   .     S
O4     X7      1.557   .     S
O4     U12     2.517   .     S
O5     X9      1.557   .     S
O6     X8      1.557   .     S
O5     U12     2.517   .     S
O6     U12     2.517   .     S
O10    U12     2.344   .     D
O11    U12     2.344   .     D
