data_sym_5_on_11
_audit_creation_date              2018-09-25
_audit_creation_method            'tobacco_3.0'
_symmetry_space_group_name_H-M    'P1'
_symmetry_Int_Tables_number       1
_symmetry_cell_setting            triclinic
loop_
_symmetry_equiv_pos_as_xyz
  x,y,z
_cell_length_a                    20.0000
_cell_length_b                    20.0000
_cell_length_c                    20.0000
_cell_angle_alpha                 90.0000
_cell_angle_beta                  90.0000
_cell_angle_gamma                 90.0000
loop_
_atom_site_label
_atom_site_type_symbol
_atom_site_fract_x
_atom_site_fract_y
_atom_site_fract_z
_atom_site_U_iso_or_equiv
_atom_site_adp_type
_atom_site_occupancy
_atom_site_charge
X1         C   -0.1347500000   -0.1000300000    0.0000000000   0.00000  Uiso   1.00       -0.105596
C2         C   -0.0962500000   -0.1667100000    0.0000000000   0.00000  Uiso   1.00        -0.04422
X3         C   -0.0192500000   -0.1667100000    0.0000000000   0.00000  Uiso   1.00       -0.105418
C4         C    0.0192500000   -0.1000300000    0.0000000000   0.00000  Uiso   1.00        0.104038
C5         C   -0.0192500000   -0.0333400000    0.0000000000   0.00000  Uiso   1.00       -0.023361
C6         C   -0.0962500000   -0.0333400000    0.0000000000   0.00000  Uiso   1.00        0.102031
C7         C   -0.1347500000    0.0333400000   -0.0000000000   0.00000  Uiso   1.00       -0.123434
C8         C   -0.0962500000    0.1000300000   -0.0000000000   0.00000  Uiso   1.00       -0.123436
C9         C   -0.0192500000    0.1000300000   -0.0000000000   0.00000  Uiso   1.00        0.102033
C10        C    0.0192500000    0.0333400000   -0.0000000000   0.00000  Uiso   1.00       -0.023361
C11        C    0.0962500000   -0.1000300000    0.0000000000   0.00000  Uiso   1.00       -0.124693
C12        C    0.1347500000   -0.0333400000    0.0000000000   0.00000  Uiso   1.00       -0.124693
C13        C    0.0962500000    0.0333400000    0.0000000000   0.00000  Uiso   1.00        0.104038
X14        C    0.1347500000    0.1000300000    0.0000000000   0.00000  Uiso   1.00       -0.105419
C15        C    0.0962500000    0.1667100000   -0.0000000000   0.00000  Uiso   1.00       -0.044219
X16        C    0.0192500000    0.1667100000   -0.0000000000   0.00000  Uiso   1.00       -0.105597
H17        H   -0.1917500000    0.0333400000   -0.0000000000   0.00000  Uiso   1.00        0.076656
H18        H   -0.1247500000    0.1493900000   -0.0000000000   0.00000  Uiso   1.00        0.076657
H19        H    0.1247500000   -0.1493900000    0.0000000000   0.00000  Uiso   1.00        0.078411
H20        H    0.1917500000   -0.0333400000    0.0000000000   0.00000  Uiso   1.00        0.078411
H21        H   -0.1247500000   -0.2160700000    0.0000000000   0.00000  Uiso   1.00        0.042874
H22        H    0.1247500000    0.2160700000   -0.0000000000   0.00000  Uiso   1.00        0.042874
loop_
_geom_bond_atom_site_label_1
_geom_bond_atom_site_label_2
_geom_bond_distance
_geom_bond_site_symmetry_2
_ccdc_geom_bond_type
X1           C2 1.540       .   A
X1           C6 1.540       .   A
C2           X3 1.540       .   A
C2          H21 1.140       .   S
X3           C4 1.540       .   A
C4           C5 1.540       .   A
C4          C11 1.540       .   A
C5           C6 1.540       .   A
C5          C10 1.540       .   A
C6           C7 1.540       .   A
C7           C8 1.540       .   A
C7          H17 1.140       .   S
C8           C9 1.540       .   A
C8          H18 1.140       .   S
C9          C10 1.540       .   A
C9          X16 1.540       .   A
C10         C13 1.540       .   A
C11         C12 1.540       .   A
C11         H19 1.140       .   S
C12         C13 1.540       .   A
C12         H20 1.140       .   S
C13         X14 1.540       .   A
X14         C15 1.540       .   A
C15         X16 1.540       .   A
C15         H22 1.140       .   S
