# generated using pymatgen
data_CuH2(C3O2)2
_symmetry_space_group_name_H-M   'P 1'
_cell_length_a   18.59490000
_cell_length_b   18.59496556
_cell_length_c   18.59496000
_cell_angle_alpha   89.99982962
_cell_angle_beta   120.00008000
_cell_angle_gamma   120.00033011
_symmetry_Int_Tables_number   1
_chemical_formula_structural   CuH2(C3O2)2
_chemical_formula_sum   'Cu12 H24 C72 O48'
_cell_volume   4546.39776743
_cell_formula_units_Z   12
loop_
 _symmetry_equiv_pos_site_id
 _symmetry_equiv_pos_as_xyz
  1  'x, y, z'
loop_
 _atom_site_type_symbol
 _atom_site_label
 _atom_site_symmetry_multiplicity
 _atom_site_fract_x
 _atom_site_fract_y
 _atom_site_fract_z
 _atom_site_occupancy
  Cu  Cu0  1  0.99999600  0.99999800  0.43480200  1.0
  Cu  Cu1  1  0.99999600  0.56519400  0.99999800  1.0
  Cu  Cu2  1  0.56519600  0.56519600  0.00000000  1.0
  Cu  Cu3  1  0.56519000  0.99999500  0.56519500  1.0
  Cu  Cu4  1  0.56519400  0.99999700  0.99999900  1.0
  Cu  Cu5  1  0.56519400  0.56519500  0.56519700  1.0
  Cu  Cu6  1  0.00000400  0.00000200  0.56519800  1.0
  Cu  Cu7  1  0.00000400  0.43480600  0.00000200  1.0
  Cu  Cu8  1  0.43480400  0.43480400  0.00000000  1.0
  Cu  Cu9  1  0.43481000  0.00000500  0.43480500  1.0
  Cu  Cu10  1  0.43480600  0.00000300  0.00000100  1.0
  Cu  Cu11  1  0.43480600  0.43480500  0.43480300  1.0
  H  H12  1  0.76270000  0.73461500  0.26538600  1.0
  H  H13  1  0.76270200  0.02808500  0.49731800  1.0
  H  H14  1  0.23729800  0.73461600  0.26538300  1.0
  H  H15  1  0.23730000  0.50268600  0.97191500  1.0
  H  H16  1  0.46923000  0.73461500  0.97191500  1.0
  H  H17  1  0.53077000  0.50268500  0.26538500  1.0
  H  H18  1  0.46923000  0.73461500  0.49731500  1.0
  H  H19  1  0.53077100  0.02808600  0.26538500  1.0
  H  H20  1  0.76270000  0.02808500  0.26538500  1.0
  H  H21  1  0.23729800  0.73461600  0.97191500  1.0
  H  H22  1  0.23730100  0.50268600  0.26538500  1.0
  H  H23  1  0.76270200  0.73461700  0.49731800  1.0
  H  H24  1  0.23729800  0.26538300  0.50268200  1.0
  H  H25  1  0.23730000  0.97191500  0.73461500  1.0
  H  H26  1  0.76270200  0.26538400  0.02808500  1.0
  H  H27  1  0.76269900  0.49731400  0.73461500  1.0
  H  H28  1  0.53077000  0.26538500  0.50268500  1.0
  H  H29  1  0.46923000  0.49731500  0.73461500  1.0
  H  H30  1  0.53077000  0.26538500  0.02808500  1.0
  H  H31  1  0.46922900  0.97191400  0.73461500  1.0
  H  H32  1  0.23729800  0.97191500  0.50268200  1.0
  H  H33  1  0.76270200  0.26538400  0.73461700  1.0
  H  H34  1  0.76269900  0.49731400  0.02808500  1.0
  H  H35  1  0.23730000  0.26538500  0.73461500  1.0
  C  C36  1  0.72985300  0.70015200  0.29984700  1.0
  C  C37  1  0.72985500  0.02970200  0.43000600  1.0
  C  C38  1  0.27014600  0.70015200  0.29984700  1.0
  C  C39  1  0.27014800  0.56999500  0.97029900  1.0
  C  C40  1  0.40030500  0.70015200  0.97029900  1.0
  C  C41  1  0.59969700  0.56999600  0.29984700  1.0
  C  C42  1  0.40030300  0.70015100  0.43000600  1.0
  C  C43  1  0.59969800  0.02970400  0.29984800  1.0
  C  C44  1  0.72985300  0.02970200  0.29984800  1.0
  C  C45  1  0.27014700  0.70015300  0.97029900  1.0
  C  C46  1  0.27014700  0.56999500  0.29984900  1.0
  C  C47  1  0.72985400  0.70015300  0.43000600  1.0
  C  C48  1  0.27014600  0.29984700  0.56999400  1.0
  C  C49  1  0.27014700  0.97029800  0.70015200  1.0
  C  C50  1  0.72985300  0.29984700  0.02970100  1.0
  C  C51  1  0.72985300  0.43000500  0.70015100  1.0
  C  C52  1  0.59969700  0.29984900  0.56999400  1.0
  C  C53  1  0.40030300  0.43000400  0.70015300  1.0
  C  C54  1  0.59969500  0.29984800  0.02970100  1.0
  C  C55  1  0.40030200  0.97029600  0.70015200  1.0
  C  C56  1  0.27014500  0.97029800  0.56999400  1.0
  C  C57  1  0.72985400  0.29984800  0.70015300  1.0
  C  C58  1  0.72985200  0.43000500  0.02970100  1.0
  C  C59  1  0.27014700  0.29984800  0.70015300  1.0
  C  C60  1  0.86157800  0.83774700  0.43079100  1.0
  C  C61  1  0.86157800  0.02383100  0.43079200  1.0
  C  C62  1  0.13842000  0.56921200  0.16225300  1.0
  C  C63  1  0.13842100  0.56921200  0.97616900  1.0
  C  C64  1  0.40695700  0.56921000  0.97616800  1.0
  C  C65  1  0.59304200  0.56921000  0.16225300  1.0
  C  C66  1  0.40695500  0.83774600  0.43078800  1.0
  C  C67  1  0.59304400  0.02383200  0.43079100  1.0
  C  C68  1  0.59304200  0.02383200  0.16225300  1.0
  C  C69  1  0.40695500  0.83774600  0.97616900  1.0
  C  C70  1  0.40695700  0.56921000  0.43079000  1.0
  C  C71  1  0.59304300  0.56921200  0.43079100  1.0
  C  C72  1  0.13842200  0.16225300  0.56920900  1.0
  C  C73  1  0.13842200  0.97616900  0.56920800  1.0
  C  C74  1  0.86157900  0.43078800  0.02383100  1.0
  C  C75  1  0.86158000  0.43078800  0.83774700  1.0
  C  C76  1  0.59304300  0.43079000  0.56921000  1.0
  C  C77  1  0.40695700  0.43078800  0.56920900  1.0
  C  C78  1  0.59304500  0.16225400  0.02383100  1.0
  C  C79  1  0.40695800  0.97616800  0.83774700  1.0
  C  C80  1  0.40695600  0.97616800  0.56920900  1.0
  C  C81  1  0.59304500  0.16225400  0.56921200  1.0
  C  C82  1  0.59304300  0.43079000  0.02383200  1.0
  C  C83  1  0.40695800  0.43079000  0.83774700  1.0
  C  C84  1  0.77303400  0.74340400  0.38651800  1.0
  C  C85  1  0.77303500  0.02963100  0.38651900  1.0
  C  C86  1  0.22696400  0.61348300  0.25659600  1.0
  C  C87  1  0.22696400  0.61348200  0.97037000  1.0
  C  C88  1  0.35688500  0.61348200  0.97036900  1.0
  C  C89  1  0.64311300  0.61348200  0.25659700  1.0
  C  C90  1  0.35688500  0.74340400  0.38651800  1.0
  C  C91  1  0.64311400  0.02963200  0.38651900  1.0
  C  C92  1  0.64311400  0.02963200  0.25659700  1.0
  C  C93  1  0.35688600  0.74340400  0.97037000  1.0
  C  C94  1  0.35688500  0.61348200  0.38651800  1.0
  C  C95  1  0.64311300  0.61348300  0.38651800  1.0
  C  C96  1  0.22696500  0.25659500  0.61348200  1.0
  C  C97  1  0.22696400  0.97036900  0.61348100  1.0
  C  C98  1  0.77303600  0.38651800  0.02963000  1.0
  C  C99  1  0.77303600  0.38651700  0.74340500  1.0
  C  C100  1  0.64311400  0.38651800  0.61348200  1.0
  C  C101  1  0.35688700  0.38651700  0.61348200  1.0
  C  C102  1  0.64311300  0.25659500  0.02963000  1.0
  C  C103  1  0.35688600  0.97036800  0.74340400  1.0
  C  C104  1  0.35688600  0.97036800  0.61348100  1.0
  C  C105  1  0.64311400  0.25659500  0.61348200  1.0
  C  C106  1  0.64311300  0.38651800  0.02963100  1.0
  C  C107  1  0.35688700  0.38651800  0.74340500  1.0
  O  O108  1  0.89491500  0.87441400  0.38627300  1.0
  O  O109  1  0.89492400  0.02050900  0.50864700  1.0
  O  O110  1  0.10507700  0.61372400  0.12558500  1.0
  O  O111  1  0.10508600  0.49135900  0.97949900  1.0
  O  O112  1  0.48814100  0.61372700  0.97949600  1.0
  O  O113  1  0.51185900  0.49135500  0.12558600  1.0
  O  O114  1  0.48813700  0.87441200  0.50864400  1.0
  O  O115  1  0.51186400  0.02050800  0.38627500  1.0
  O  O116  1  0.63422700  0.02050100  0.12558400  1.0
  O  O117  1  0.36577000  0.87441500  0.97949600  1.0
  O  O118  1  0.36577200  0.49135600  0.38627400  1.0
  O  O119  1  0.63423000  0.61372600  0.50864500  1.0
  O  O120  1  0.10507700  0.12558500  0.49135300  1.0
  O  O121  1  0.10508400  0.97949800  0.61372600  1.0
  O  O122  1  0.89492300  0.38627600  0.02050800  1.0
  O  O123  1  0.89491500  0.50864100  0.87441400  1.0
  O  O124  1  0.51186100  0.38627500  0.49135400  1.0
  O  O125  1  0.48813800  0.50864200  0.61372600  1.0
  O  O126  1  0.51186200  0.12558800  0.02050400  1.0
  O  O127  1  0.48813800  0.97949200  0.87441400  1.0
  O  O128  1  0.36577100  0.97949800  0.49135400  1.0
  O  O129  1  0.63422900  0.12558300  0.61372700  1.0
  O  O130  1  0.63423100  0.50864500  0.02050400  1.0
  O  O131  1  0.36576900  0.38627300  0.87441400  1.0
  O  O132  1  0.10508500  0.12558600  0.61372700  1.0
  O  O133  1  0.10507600  0.97949100  0.49135300  1.0
  O  O134  1  0.89492300  0.38627600  0.87441500  1.0
  O  O135  1  0.89491400  0.50864100  0.02050100  1.0
  O  O136  1  0.51185900  0.38627300  0.02050400  1.0
  O  O137  1  0.48814100  0.50864500  0.87441400  1.0
  O  O138  1  0.51186300  0.12558800  0.49135600  1.0
  O  O139  1  0.48813600  0.97949200  0.61372500  1.0
  O  O140  1  0.36577300  0.97949900  0.87441600  1.0
  O  O141  1  0.63423000  0.12558500  0.02050400  1.0
  O  O142  1  0.63422800  0.50864400  0.61372600  1.0
  O  O143  1  0.36577000  0.38627400  0.49135500  1.0
  O  O144  1  0.89492300  0.87441500  0.50864700  1.0
  O  O145  1  0.89491600  0.02050200  0.38627400  1.0
  O  O146  1  0.10507700  0.61372400  0.97949200  1.0
  O  O147  1  0.10508500  0.49135900  0.12558600  1.0
  O  O148  1  0.48813900  0.61372500  0.50864600  1.0
  O  O149  1  0.51186200  0.49135800  0.38627400  1.0
  O  O150  1  0.48813800  0.87441200  0.97949600  1.0
  O  O151  1  0.51186100  0.02050700  0.12558600  1.0
  O  O152  1  0.63422900  0.02050200  0.50864600  1.0
  O  O153  1  0.36577100  0.87441700  0.38627300  1.0
  O  O154  1  0.36576900  0.49135500  0.97949600  1.0
  O  O155  1  0.63423100  0.61372700  0.12558600  1.0
