data_acs_v1-6c_Al_1_1-3B_4H_Ch
_audit_creation_date              2021-06-16
_audit_creation_method            'tobacco_3.0'
_symmetry_space_group_name_H-M    'P1'
_symmetry_Int_Tables_number       1
_symmetry_cell_setting            triclinic
loop_
_symmetry_equiv_pos_as_xyz
  x,y,z
_cell_length_a                    30.524850456775386
_cell_length_b                    30.52485056779037
_cell_length_c                    24.206420806209756
_cell_angle_alpha                 89.99999928714452
_cell_angle_beta                  90.00000082502241
_cell_angle_gamma                 120.0007082283201
loop_
_atom_site_label
_atom_site_type_symbol
_atom_site_fract_x
_atom_site_fract_y
_atom_site_fract_z
_atom_site_charge
O1         O    0.3354903073    0.7439544418    0.6982079559          0.7946
O2         O    0.2560474694    0.5916377906    0.6982079564          0.7946
O3         O    0.4083584397    0.6645115508    0.6982079572          0.7946
O4         O    0.4083631563    0.7439558492    0.6982079565          0.7946
O5         O    0.3354864533    0.5916384296    0.6982079571          0.7946
O6         O    0.2560466069    0.6645095043    0.6982079558          0.7946
C7         C    0.3800446835    0.7601911924    0.6798822399          0.7946
C8         C    0.2398109911    0.6199553164    0.6798822397          0.7946
C9         C    0.3800443245    0.6199534918    0.6798822410          0.7946
O10        O    0.3354903077    0.7439544415    0.8017920430          0.7946
O11        O    0.2560474699    0.5916377903    0.8017920434          0.7946
O12        O    0.4083584402    0.6645115505    0.8017920442          0.7946
O13        O    0.4083631568    0.7439558489    0.8017920436          0.7946
O14        O    0.3354864537    0.5916384293    0.8017920441          0.7946
O15        O    0.2560466073    0.6645095040    0.8017920429          0.7946
Al16      Al    0.3004900186    0.6995040803    0.7499958683             1.0
Al17      Al    0.3004892088    0.6010814116    0.7499958691             1.0
Al18      Al    0.3989142206    0.6995079560    0.7499958692             1.0
O19        O    0.3332990769    0.6666965550    0.7499958689          0.7946
C20        C    0.3800446841    0.7601911920    0.8201177595          0.7946
C21        C    0.2398109917    0.6199553160    0.8201177593          0.7946
C22        C    0.3800443251    0.6199534914    0.8201177606          0.7946
O23        O    0.6644434502    0.2561117973    0.1982079527          0.7946
O24        O    0.7438862880    0.4084284485    0.1982079523          0.7946
O25        O    0.5915753177    0.3355546882    0.1982079515          0.7946
O26        O    0.5915706011    0.2561103898    0.1982079521          0.7946
O27        O    0.6644473042    0.4084278094    0.1982079516          0.7946
O28        O    0.7438871506    0.3355567347    0.1982079528          0.7946
C29        C    0.6198890738    0.2398750467    0.1798822362          0.7946
C30        C    0.7601227661    0.3801109227    0.1798822364          0.7946
C31        C    0.6198894328    0.3801127474    0.1798822351          0.7946
O32        O    0.6644434506    0.2561117970    0.3017920398          0.7946
O33        O    0.7438862885    0.4084284482    0.3017920393          0.7946
O34        O    0.5915753182    0.3355546879    0.3017920386          0.7946
O35        O    0.5915706016    0.2561103895    0.3017920392          0.7946
O36        O    0.6644473046    0.4084278091    0.3017920386          0.7946
O37        O    0.7438871510    0.3355567344    0.3017920399          0.7946
Al38      Al    0.6994437393    0.3005621585    0.2499958651             1.0
Al39      Al    0.6994445491    0.3989848272    0.2499958644             1.0
Al40      Al    0.6010195373    0.3005582828    0.2499958642             1.0
O41        O    0.6666346809    0.3333696837    0.2499958646          0.7946
C42        C    0.6198890744    0.2398750463    0.3201177558          0.7946
C43        C    0.7601227668    0.3801109223    0.3201177560          0.7946
C44        C    0.6198894334    0.3801127470    0.3201177548          0.7946
C195       C    0.1917890835    0.5959443338    0.8561340211         -0.2197
C196       C    0.1421361883    0.5517692592    0.8336142126         -0.2969
C197       C    0.0950311928    0.5258292394    0.8709240200         -0.3267
C198       C    0.0976490998    0.5440274423    0.9308072463         -0.1122
C199       C    0.1475850234    0.5875552945    0.9537213131         -0.3145
C200       C    0.1946413488    0.6136455839    0.9163042719          -0.307
C201       C    0.0500743939    0.5190163087    0.9674528715         -0.1863
C202       C    0.9999095032    0.4764707454    0.9438204528         -0.2974
C203       C    0.9518999658    0.4524397601    0.9797992905         -0.2974
C204       C    0.9541015952    0.4710527240    0.0393969902         -0.1863
C205       C    0.0044609417    0.5130031290    0.0633696834         -0.2976
C206       C    0.0524996720    0.5369950865    0.0273787959         -0.2975
C207       C    0.9057349220    0.4481130148    0.0747166263         -0.1124
C208       C    0.8555762169    0.4059902716    0.0506245120         -0.3265
C209       C    0.8067902812    0.3838927893    0.0852430699         -0.2972
C210       C    0.8081446744    0.4041219049    0.1438659746         -0.2195
C211       C    0.8584774566    0.4457956544    0.1682660647         -0.3071
C212       C    0.9073363387    0.4676844890    0.1337347186         -0.3144
H214       H    0.1401549146    0.5384515473    0.7891967413         -0.0895
H215       H    0.0581317580    0.4933517391    0.8541493759         -0.1175
H216       H    0.1496305112    0.6007182711    0.9982415676         -0.1181
H217       H    0.2315487214    0.6461316880    0.9330917127         -0.0906
H218       H    0.9983102554    0.4629249195    0.8995751470         -0.1215
H219       H    0.9146440473    0.4211579893    0.9622196384         -0.1215
H220       H    0.0060987772    0.5264993609    0.1076474568         -0.1208
H221       H    0.0897676751    0.5682338717    0.0449777454         -0.1208
H222       H    0.8545378599    0.3912700268    0.0071009293         -0.1175
H223       H    0.7696478285    0.3527995929    0.0673755181         -0.0895
H225       H    0.8595608819    0.4604940789    0.2118031913         -0.0907
H226       H    0.9445703030    0.4985538258    0.1516898557         -0.1182
C165       C    0.8081446740    0.4041219042    0.3561340178         -0.2197
C166       C    0.8563063055    0.4515993653    0.3359856491         -0.2969
C167       C    0.9032499893    0.4773073147    0.3735519661         -0.3267
C168       C    0.9019572921    0.4555644923    0.4313278028         -0.1122
C169       C    0.8534592246    0.4086608674    0.4519553558         -0.3145
C170       C    0.8065760109    0.3828195413    0.4142630411          -0.307
C171       C    0.9494491917    0.4804601436    0.4681051030         -0.1863
C172       C    0.9982503789    0.5264867171    0.4466412851         -0.2974
C173       C    0.0462580260    0.5505185669    0.4826231299         -0.2974
C174       C    0.0454234967    0.5284270568    0.5400468285         -0.1863
C175       C    0.9963808578    0.4829343869    0.5619256512         -0.2976
C176       C    0.9483403107    0.4589387216    0.5259376518         -0.2975
C177       C    0.0938743844    0.5514824001    0.5752325524         -0.1124
C178       C    0.1426974859    0.5971342502    0.5532643562         -0.3265
C179       C    0.1916383591    0.6194593625    0.5876365424         -0.2972
C180       C    0.1917890839    0.5959443346    0.6438659779         -0.2195
C181       C    0.1427556728    0.5506898043    0.6661997647         -0.3071
C182       C    0.0937251424    0.5285537169    0.6319413631         -0.3144
H184       H    0.8573184876    0.4675563742    0.2931092582         -0.0895
H185       H    0.9390655295    0.5122558586    0.3585009562         -0.1175
H186       H    0.8523701943    0.3928407129    0.4949546198         -0.1181
H187       H    0.7707529009    0.3478612994    0.4293262626         -0.0906
H188       H    0.9988524857    0.5426235196    0.4039816621         -0.1215
H189       H    0.0825230472    0.5844002997    0.4666192328         -0.1215
H190       H    0.9957355192    0.4668401922    0.6046251267         -0.1208
H191       H    0.9120598623    0.4250960514    0.5419661613         -0.1208
H192       H    0.1426402460    0.6143084925    0.5114830153         -0.1175
H193       H    0.2277985959    0.6531717210    0.5713309413         -0.0895
H195       H    0.1427648731    0.5335323505    0.7079993742         -0.0907
H196       H    0.0574550134    0.4950436266    0.6483637772         -0.1182
C135       C    0.4040550716    0.8082114754    0.6438668681         -0.2197
C136       C    0.4531828972    0.8235347083    0.6117969552         -0.2969
C137       C    0.4753916393    0.8698187520    0.5731817863         -0.3267
C138       C    0.4483755253    0.9007018230    0.5665706267         -0.1122
C139       C    0.3986844795    0.8848068766    0.5977872528         -0.3145
C140       C    0.3765978213    0.8386319537    0.6366057759          -0.307
C141       C    0.4714977557    0.9478371402    0.5292263450         -0.1863
C142       C    0.5219113495    0.9643454452    0.4993392764         -0.2974
C143       C    0.5459247058    0.0123276300    0.4633169436         -0.2974
C144       C    0.5195048845    0.0438116209    0.4572848989         -0.1863
C145       C    0.4686453734    0.0268385299    0.4864018481         -0.2976
C146       C    0.4446033214    0.9787960653    0.5223867990         -0.2975
C147       C    0.5443527929    0.0926337665    0.4226894933         -0.1124
C148       C    0.5950491125    0.1092412156    0.3934295957         -0.3265
C149       C    0.6207649668    0.1587921703    0.3600274590         -0.2972
C150       C    0.5958786863    0.1918547634    0.3561331276         -0.2195
C151       C    0.5447965105    0.1748866565    0.3847883751         -0.3071
C152       C    0.5189347457    0.1251560365    0.4179336077         -0.3144
H154       H    0.4732907626    0.8007858535    0.6168894473         -0.0895
H155       H    0.5119814125    0.8814189769    0.5497265800         -0.1175
H156       H    0.3784412381    0.9074257830    0.5924874560         -0.1181
H157       H    0.3399961993    0.8270336337    0.6600638368         -0.0906
H158       H    0.5415408045    0.9411109482    0.5040948522         -0.1215
H159       H    0.5834346632    0.0247814566    0.4414571952         -0.1215
H160       H    0.4489558777    0.0500123048    0.4815786097         -0.1208
H161       H    0.4070654443    0.9663087993    0.5441932940         -0.1208
H162       H    0.6136093017    0.0849219551    0.3966304574         -0.1175
H163       H    0.6583357574    0.1711437633    0.3384734658         -0.0895
H165       H    0.5261839282    0.1991494469    0.3815558406         -0.0907
H166       H    0.4811977723    0.1125955907    0.4392134332         -0.1182
C105       C    0.5958786858    0.1918547637    0.1438668652         -0.2197
C106       C    0.6172844601    0.1556761381    0.1449610904         -0.2969
C107       C    0.5912783098    0.1061450576    0.1115091688         -0.3267
C108       C    0.5437870077    0.0927692701    0.0770578368         -0.1122
C109       C    0.5217540656    0.1284503683    0.0768105692         -0.3145
C110       C    0.5479143022    0.1781097104    0.1100883736          -0.307
C111       C    0.5187861621    0.0439732806    0.0423542596         -0.1863
C112       C    0.5418142076    0.0091690102    0.0415614779         -0.2974
C113       C    0.5178258470    0.9611547999    0.0055900715         -0.2974
C114       C    0.4708370081    0.9480310683    0.9703615038         -0.1863
C115       C    0.4472718035    0.9823648352    0.9718714096         -0.2976
C116       C    0.4712498751    0.0303688907    0.0079174357         -0.2975
C117       C    0.4478645200    0.9008947852    0.9330853386         -0.1124
C118       C    0.4714200802    0.8665698941    0.9319997955         -0.3265
C119       C    0.4494432923    0.8201456206    0.8936257962         -0.2972
C120       C    0.4040550721    0.8082114751    0.8561331306         -0.2195
C121       C    0.3800411853    0.8421684624    0.8577725392         -0.3071
C122       C    0.4018561731    0.8884434598    0.8964126987         -0.3144
H124       H    0.6525773677    0.1657017665    0.1702861376         -0.0895
H125       H    0.6073267850    0.0795055408    0.1119693882         -0.1175
H126       H    0.4863048387    0.1183008748    0.0516818168         -0.1181
H127       H    0.5318548537    0.2047519988    0.1096235721         -0.0906
H128       H    0.5767707269    0.0191022764    0.0674687156         -0.1215
H129       H    0.5350488979    0.9355254262    0.0046821307         -0.1215
H130       H    0.4122600865    0.9723982970    0.9460459734         -0.1208
H131       H    0.4539932311    0.0559659123    0.0088767412         -0.1188
H132       H    0.5052185774    0.8756139547    0.9594912094         -0.1175
H133       H    0.4669400072    0.7948045121    0.8927277953         -0.0895
H135       H    0.3462104522    0.8331197902    0.8303465808         -0.0907
H136       H    0.3841870268    0.9136316005    0.8976118785         -0.1182
C75        C    0.5958780052    0.4041237382    0.1438654127         -0.2197
C76        C    0.5666610756    0.4274544971    0.1709900149         -0.2969
C77        C    0.5453732107    0.4541717849    0.1351124463         -0.3267
C78        C    0.5534193826    0.4576352185    0.0721040593         -0.1122
C79        C    0.5835115792    0.4351914287    0.0450538771         -0.3145
C80        C    0.6046098362    0.4082674080    0.0809340528          -0.307
C81        C    0.5307775805    0.4830263593    0.0361879355         -0.1863
C82        C    0.4995365844    0.5041377722    0.0633004414         -0.2974
C83        C    0.4755416879    0.5281589701    0.0273328470         -0.2974
C84        C    0.4827646267    0.5309757894    0.9642288867         -0.1863
C85        C    0.5147330744    0.5106534082    0.9371832547         -0.2976
C86        C    0.5387830363    0.4866762979    0.9731918642         -0.2975
C87        C    0.4574246726    0.5535374300    0.9281705002         -0.1124
C88        C    0.4257566164    0.5740510745    0.9554810767         -0.3265
C89        C    0.3991665051    0.5953767658    0.9194796554         -0.2972
C90        C    0.4040557527    0.5959425006    0.8561345830         -0.2195
C91        C    0.4363174112    0.5760502117    0.8288369804         -0.3071
C92        C    0.4631580576    0.5549909993    0.8648925433         -0.3144
H94        H    0.5605242181    0.4246886865    0.2176180115         -0.0895
H95        H    0.5234033528    0.4711348329    0.1551218229         -0.1175
H96        H    0.5898565402    0.4381713686    0.9984347926         -0.1181
H97        H    0.6265860451    0.3913023374    0.0609111859         -0.0906
H98        H    0.4940215610    0.5017763094    0.1100179172         -0.1215
H99        H    0.4521106576    0.5435029954    0.0473293387         -0.1215
H100       H    0.5203340074    0.5130884246    0.8904750242         -0.1208
H101       H    0.5622629170    0.4713868163    0.9532043457         -0.1208
H102       H    0.4218825671    0.5733147118    0.0023435112         -0.1175
H103       H    0.3756391336    0.6104558299    0.9396763388         -0.0895
H105       H    0.4402592280    0.5768266166    0.7819885803         -0.0907
H106       H    0.4869666722    0.5401994465    0.8447637638         -0.1182
C45        C    0.4040557549    0.5959424982    0.6438654134         -0.2197
C46        C    0.4430731412    0.6275527720    0.5992082511         -0.2969
C47        C    0.4692967060    0.6043492038    0.5655919432         -0.3267
C48        C    0.4565528426    0.5495479808    0.5767498884         -0.1122
C49        C    0.4182716390    0.5182282893    0.6221714647         -0.3145
C50        C    0.3918771801    0.5413812176    0.6556263817          -0.307
C51        C    0.4817043104    0.5259755752    0.5419324978         -0.1863
C52        C    0.5188749324    0.5570064995    0.4955583083         -0.2974
C53        C    0.5429041005    0.5330412556    0.4595562370         -0.2974
C54        C    0.5296635440    0.4779981290    0.4699325774         -0.1863
C55        C    0.4931616182    0.4472280465    0.5169242939         -0.2976
C56        C    0.4691744390    0.4712402197    0.5529769821         -0.2975
C57        C    0.5524630747    0.4535793584    0.4327876051         -0.1124
C58        C    0.5891505268    0.4846275955    0.3860870755         -0.3265
C59        C    0.6109688704    0.4599465324    0.3478332786         -0.2972
C60        C    0.5958780030    0.4041237405    0.3561345823         -0.2195
C61        C    0.5597025923    0.3732452307    0.4033483062         -0.3071
C62        C    0.5381159630    0.3980420279    0.4418153256         -0.3144
H64        H    0.4523348249    0.6680551909    0.5907971460         -0.0895
H65        H    0.4979243881    0.6276106731    0.5322241378         -0.1175
H66        H    0.4091864785    0.4777881533    0.6307635667         -0.1181
H67        H    0.3632425659    0.5181070619    0.6890031629         -0.0906
H68        H    0.5284254145    0.5976827031    0.4877654276         -0.1215
H69        H    0.5701795312    0.5558759813    0.4249548024         -0.1215
H70        H    0.4836693293    0.4065781918    0.5247967079         -0.1208
H71        H    0.4419466052    0.4484274079    0.5876191780         -0.1208
H72        H    0.6000418420    0.5258425077    0.3797399508         -0.1175
H73        H    0.6380308832    0.4828847873    0.3131961652         -0.0895
H75        H    0.5488394018    0.3320518749    0.4097639992         -0.0907
H76        H    0.5113031929    0.3752366285    0.4766954577         -0.1182
loop_
_geom_bond_atom_site_label_1
_geom_bond_atom_site_label_2
_geom_bond_distance
_geom_bond_site_symmetry_2
_ccdc_geom_bond_type
O1         Al16 1.762       .   S
O1           C7 1.272       .   A
O2         Al17 1.762       .   S
O2           C8 1.272       .   A
O3         Al18 1.762       .   S
O3           C9 1.272       .   A
O4         Al18 1.762       .   S
O4           C7 1.272       .   A
O5         Al17 1.762       .   S
O5           C9 1.272       .   A
O6         Al16 1.762       .   S
O6           C8 1.272       .   A
C7         C135 1.540       .   S
C8         C180 1.540       .   S
C9          C45 1.540       .   S
O10        Al16 1.762       .   S
O10         C20 1.272       .   A
O11        Al17 1.762       .   S
O11         C21 1.272       .   A
O12        Al18 1.762       .   S
O12         C22 1.272       .   A
O13        Al18 1.762       .   S
O13         C20 1.272       .   A
O14        Al17 1.762       .   S
O14         C22 1.272       .   A
O15        Al16 1.762       .   S
O15         C21 1.272       .   A
Al16        O19 1.735       .   S
Al17        O19 1.735       .   S
Al18        O19 1.735       .   S
C20        C120 1.540       .   S
C21        C195 1.540       .   S
C22         C90 1.540       .   S
O23        Al38 1.762       .   S
O23         C29 1.272       .   A
O24        Al39 1.762       .   S
O24         C30 1.272       .   A
O25        Al40 1.762       .   S
O25         C31 1.272       .   A
O26        Al40 1.762       .   S
O26         C29 1.272       .   A
O27        Al39 1.762       .   S
O27         C31 1.272       .   A
O28        Al38 1.762       .   S
O28         C30 1.272       .   A
C29        C105 1.540   1_544   S
C30        C210 1.540   1_654   S
C31         C75 1.540   1_554   S
O32        Al38 1.762       .   S
O32         C42 1.272       .   A
O33        Al39 1.762       .   S
O33         C43 1.272       .   A
O34        Al40 1.762       .   S
O34         C44 1.272       .   A
O35        Al40 1.762       .   S
O35         C42 1.272       .   A
O36        Al39 1.762       .   S
O36         C44 1.272       .   A
O37        Al38 1.762       .   S
O37         C43 1.272       .   A
Al38        O41 1.735       .   S
Al39        O41 1.735       .   S
Al40        O41 1.735       .   S
C42        C150 1.540   1_545   S
C43        C165 1.540   1_655   S
C44         C60 1.540       .   S
C196       C195 1.539       .   A
C195       C200 1.540       .   A
H214       C196 1.140       .   S
C197       C196 1.540       .   A
H215       C197 1.140       .   S
C197       C198 1.540       .   A
C201       C198 1.539       .   S
C199       C198 1.540       .   A
H216       C199 1.141       .   S
C200       C199 1.541       .   A
H217       C200 1.141       .   S
C206       C201 1.539       .   A
C202       C201 1.540       .   A
H218       C202 1.140       .   S
C202       C203 1.539       .   A
H219       C203 1.140       .   S
C204       C203 1.540       .   A
C207       C204 1.539       .   S
C205       C204 1.540       .   A
H220       C205 1.140       .   S
C206       C205 1.540       .   A
H221       C206 1.140       .   S
C212       C207 1.540       .   A
C207       C208 1.539       .   A
H222       C208 1.140       .   S
C209       C208 1.540       .   A
H223       C209 1.139       .   S
C210       C209 1.540       .   A
C211       C210 1.541       .   A
C212       C211 1.541       .   A
C211       H225 1.139       .   S
C212       H226 1.139       .   S
C166       C165 1.539       .   A
C165       C170 1.540       .   A
H184       C166 1.140       .   S
C167       C166 1.540       .   A
H185       C167 1.140       .   S
C167       C168 1.540       .   A
C171       C168 1.539       .   S
C169       C168 1.540       .   A
H186       C169 1.141       .   S
C170       C169 1.541       .   A
H187       C170 1.141       .   S
C176       C171 1.539       .   A
C172       C171 1.540       .   A
H188       C172 1.140       .   S
C172       C173 1.539       .   A
H189       C173 1.140       .   S
C174       C173 1.540       .   A
C177       C174 1.539       .   S
C175       C174 1.540       .   A
H190       C175 1.140       .   S
C176       C175 1.540       .   A
H191       C176 1.140       .   S
C182       C177 1.540       .   A
C177       C178 1.539       .   A
H192       C178 1.140       .   S
C179       C178 1.540       .   A
H193       C179 1.139       .   S
C180       C179 1.540       .   A
C181       C180 1.541       .   A
C182       C181 1.541       .   A
C181       H195 1.139       .   S
C182       H196 1.139       .   S
C136       C135 1.539       .   A
C135       C140 1.540       .   A
H154       C136 1.140       .   S
C137       C136 1.540       .   A
H155       C137 1.140       .   S
C137       C138 1.540       .   A
C141       C138 1.539       .   S
C139       C138 1.540       .   A
H156       C139 1.141       .   S
C140       C139 1.541       .   A
H157       C140 1.141       .   S
C146       C141 1.539       .   A
C142       C141 1.540       .   A
H158       C142 1.140       .   S
C142       C143 1.539       .   A
H159       C143 1.140       .   S
C144       C143 1.540       .   A
C147       C144 1.539       .   S
C145       C144 1.540       .   A
H160       C145 1.140       .   S
C146       C145 1.540       .   A
H161       C146 1.140       .   S
C152       C147 1.540       .   A
C147       C148 1.539       .   A
H162       C148 1.140       .   S
C149       C148 1.540       .   A
H163       C149 1.139       .   S
C150       C149 1.540       .   A
C151       C150 1.541       .   A
C152       C151 1.541       .   A
C151       H165 1.139       .   S
C152       H166 1.139       .   S
C106       C105 1.539       .   A
C105       C110 1.540       .   A
H124       C106 1.140       .   S
C107       C106 1.540       .   A
H125       C107 1.140       .   S
C107       C108 1.540       .   A
C111       C108 1.539       .   S
C109       C108 1.540       .   A
H126       C109 1.141       .   S
C110       C109 1.541       .   A
H127       C110 1.141       .   S
C116       C111 1.539       .   A
C112       C111 1.540       .   A
H128       C112 1.140       .   S
C112       C113 1.539       .   A
H129       C113 1.140       .   S
C114       C113 1.540       .   A
C117       C114 1.539       .   S
C115       C114 1.540       .   A
H130       C115 1.140       .   S
C116       C115 1.540       .   A
H131       C116 1.140       .   S
C122       C117 1.540       .   A
C117       C118 1.539       .   A
H132       C118 1.140       .   S
C119       C118 1.540       .   A
H133       C119 1.139       .   S
C120       C119 1.540       .   A
C121       C120 1.541       .   A
C122       C121 1.541       .   A
C121       H135 1.139       .   S
C122       H136 1.139       .   S
C76         C75 1.539       .   A
C75         C80 1.540       .   A
H94         C76 1.140       .   S
C77         C76 1.540       .   A
H95         C77 1.140       .   S
C77         C78 1.540       .   A
C81         C78 1.539       .   S
C79         C78 1.540       .   A
H96         C79 1.141       .   S
C80         C79 1.541       .   A
H97         C80 1.141       .   S
C86         C81 1.539       .   A
C82         C81 1.540       .   A
H98         C82 1.140       .   S
C82         C83 1.539       .   A
H99         C83 1.140       .   S
C84         C83 1.540       .   A
C87         C84 1.539       .   S
C85         C84 1.540       .   A
H100        C85 1.140       .   S
C86         C85 1.540       .   A
H101        C86 1.140       .   S
C92         C87 1.540       .   A
C87         C88 1.539       .   A
H102        C88 1.140       .   S
C89         C88 1.540       .   A
H103        C89 1.139       .   S
C90         C89 1.540       .   A
C91         C90 1.541       .   A
C92         C91 1.541       .   A
C91        H105 1.139       .   S
C92        H106 1.139       .   S
C46         C45 1.539       .   A
C45         C50 1.540       .   A
H64         C46 1.140       .   S
C47         C46 1.540       .   A
H65         C47 1.140       .   S
C47         C48 1.540       .   A
C51         C48 1.539       .   S
C49         C48 1.540       .   A
H66         C49 1.141       .   S
C50         C49 1.541       .   A
H67         C50 1.141       .   S
C56         C51 1.539       .   A
C52         C51 1.540       .   A
H68         C52 1.140       .   S
C52         C53 1.539       .   A
H69         C53 1.140       .   S
C54         C53 1.540       .   A
C57         C54 1.539       .   S
C55         C54 1.540       .   A
H70         C55 1.140       .   S
C56         C55 1.540       .   A
H71         C56 1.140       .   S
C62         C57 1.540       .   A
C57         C58 1.539       .   A
H72         C58 1.140       .   S
C59         C58 1.540       .   A
H73         C59 1.139       .   S
C60         C59 1.540       .   A
C61         C60 1.541       .   A
C62         C61 1.541       .   A
C61         H75 1.139       .   S
C62         H76 1.139       .   S
