data_6c_CU_pdwl
_audit_creation_date              2019-01-29
_audit_creation_method            'tobacco_3.0'
_symmetry_space_group_name_H-M    'P1'
_symmetry_Int_Tables_number       1
_symmetry_cell_setting            triclinic
loop_
_symmetry_equiv_pos_as_xyz
  x,y,z
_cell_length_a                    20.0000
_cell_length_b                    20.0000
_cell_length_c                    20.0000
_cell_angle_alpha                 90.0000
_cell_angle_beta                  90.0000
_cell_angle_gamma                 90.0000
loop_
_atom_site_label
_atom_site_type_symbol
_atom_site_fract_x
_atom_site_fract_y
_atom_site_fract_z
_atom_site_U_iso_or_equiv
_atom_site_adp_type
_atom_site_occupancy
_atom_site_charge
O1         O   -0.0544200000    0.0696200000    0.0686100000   0.00000  Uiso   1.00       -0.726471
O2         O   -0.0567500000   -0.0675200000   -0.0686200000   0.00000  Uiso   1.00       -0.736282
O3         O   -0.0569100000   -0.0675600000    0.0685700000   0.00000  Uiso   1.00        -0.62247
O4         O   -0.0542600000    0.0696600000   -0.0685900000   0.00000  Uiso   1.00       -0.706579
O5         O    0.0569100000    0.0676400000   -0.0684600000   0.00000  Uiso   1.00       -0.702106
O6         O    0.0542600000   -0.0695700000    0.0687000000   0.00000  Uiso   1.00       -0.614636
O7         O    0.0544200000   -0.0695400000   -0.0684900000   0.00000  Uiso   1.00       -0.739725
O8         O    0.0567500000    0.0676000000    0.0687400000   0.00000  Uiso   1.00       -0.727519
X9        Cu   -0.0657300000    0.0012300000   -0.0000200000   0.00000  Uiso   1.00        1.045566
X10       Cu    0.0657300000   -0.0011500000    0.0001400000   0.00000  Uiso   1.00        1.043274
X11        C    0.0015100000    0.0888300000    0.0889100000   0.00000  Uiso   1.00        0.935505
X12        C   -0.0015100000   -0.0887500000   -0.0887900000   0.00000  Uiso   1.00        0.926897
X13        C   -0.0017200000   -0.0887900000    0.0888600000   0.00000  Uiso   1.00        0.848353
X14        C    0.0017200000    0.0888700000   -0.0887400000   0.00000  Uiso   1.00        0.911069
loop_
_geom_bond_atom_site_label_1
_geom_bond_atom_site_label_2
_geom_bond_distance
_geom_bond_site_symmetry_2
_ccdc_geom_bond_type
O1           X9 1.951       .   S
O1          X11 1.250       .   A
O2           X9 1.951       .   S
O2          X12 1.250       .   A
O3           X9 1.951       .   S
O3          X13 1.250       .   A
O4           X9 1.951       .   S
O4          X14 1.250       .   A
O5          X10 1.951       .   S
O5          X14 1.250       .   A
O6          X10 1.951       .   S
O6          X13 1.251       .   A
O7          X10 1.951       .   S
O7          X12 1.250       .   A
O8          X10 1.951       .   S
O8          X11 1.250       .   A
X9          X10 2.630       .   S
