# generated using pymatgen
data_Al3H36C60O13
_symmetry_space_group_name_H-M   'P 1'
_cell_length_a   24.20642081
_cell_length_b   30.52452375
_cell_length_c   30.52485046
_cell_angle_alpha   60.00035429
_cell_angle_beta   90.00000083
_cell_angle_gamma   90.00000011
_symmetry_Int_Tables_number   1
_chemical_formula_structural   Al3H36C60O13
_chemical_formula_sum   'Al6 H72 C120 O26'
_cell_volume   19532.83145545
_cell_formula_units_Z   2
loop_
 _symmetry_equiv_pos_site_id
 _symmetry_equiv_pos_as_xyz
  1  'x, y, z'
loop_
 _atom_site_type_symbol
 _atom_site_label
 _atom_site_symmetry_multiplicity
 _atom_site_fract_x
 _atom_site_fract_y
 _atom_site_fract_z
 _atom_site_occupancy
  Al  Al0  1  0.25000413  0.30049592  0.39901406  1
  Al  Al1  1  0.25000413  0.39891859  0.30059220  1
  Al  Al2  1  0.25000413  0.30049204  0.30059374  1
  Al  Al3  1  0.75000413  0.69943784  0.60111842  1
  Al  Al4  1  0.75000414  0.60101517  0.69954028  1
  Al  Al5  1  0.75000414  0.69944172  0.69953875  1
  H  H6  1  0.21080326  0.46154845  0.39829663  1
  H  H7  1  0.14585062  0.50664826  0.43521998  1
  H  H8  1  0.00175843  0.39928173  0.45108776  1
  H  H9  1  0.06690829  0.35386831  0.41458297  1
  H  H10  1  0.10042485  0.53707508  0.46461466  1
  H  H11  1  0.03778036  0.57884201  0.50651394  1
  H  H12  1  0.89235254  0.47350064  0.52040058  1
  H  H13  1  0.95502225  0.43176613  0.47846620  1
  H  H14  1  0.99289907  0.60872997  0.53673217  1
  H  H15  1  0.93262448  0.64720041  0.58315176  1
  H  H16  1  0.78819681  0.53950592  0.60093320  1
  H  H17  1  0.84831014  0.50144617  0.55398352  1
  H  H18  1  0.70689074  0.53244363  0.61023789  1
  H  H19  1  0.64149904  0.48774414  0.57319033  1
  H  H20  1  0.50504538  0.60715929  0.54047052  1
  H  H21  1  0.57067374  0.65213870  0.57710840  1
  H  H22  1  0.59601834  0.45737648  0.54377103  1
  H  H23  1  0.53338077  0.41559970  0.50187725  1
  H  H24  1  0.39537487  0.53315981  0.47110467  1
  H  H25  1  0.45803384  0.57490395  0.51303619  1
  H  H26  1  0.48851698  0.38569151  0.47166825  1
  H  H27  1  0.42866906  0.34682828  0.42537313  1
  H  H28  1  0.29200063  0.46646765  0.39076748  1
  H  H29  1  0.35163622  0.50495637  0.43758861  1
  H  H30  1  0.38311055  0.19921415  0.32749509  1
  H  H31  1  0.45027342  0.11858102  0.36943756  1
  H  H32  1  0.40751254  0.09257422  0.52898454  1
  H  H33  1  0.33993616  0.17296637  0.48703743  1
  H  H34  1  0.49590515  0.05888905  0.39957014  1
  H  H35  1  0.55854280  0.97521854  0.44134679  1
  H  H36  1  0.51842139  0.94998770  0.60105643  1
  H  H37  1  0.45580671  0.03369120  0.55924335  1
  H  H38  1  0.60336954  0.91507804  0.47131265  1
  H  H39  1  0.66152653  0.82885624  0.51280801  1
  H  H40  1  0.61844416  0.80085055  0.67296552  1
  H  H41  1  0.56078657  0.88740441  0.63139782  1
  H  H42  1  0.82971386  0.83429823  0.51312440  1
  H  H43  1  0.88803061  0.92049446  0.47217876  1
  H  H44  1  0.94831818  0.88169913  0.63199604  1
  H  H45  1  0.89037643  0.79524800  0.67289715  1
  H  H46  1  0.93253128  0.98089772  0.44233155  1
  H  H47  1  0.99531787  0.06447457  0.40047653  1
  H  H48  1  0.05395403  0.02760170  0.56013821  1
  H  H49  1  0.99112326  0.94403409  0.60197268  1
  H  H50  1  0.04050879  0.12438605  0.37039538  1
  H  H51  1  0.10727220  0.20519549  0.32786450  1
  H  H52  1  0.16965342  0.16688021  0.48690934  1
  H  H53  1  0.10238812  0.08636840  0.52944457  1
  H  H54  1  0.78238199  0.57531131  0.86416447  1
  H  H55  1  0.84487818  0.52886517  0.94773148  1
  H  H56  1  0.00156521  0.56182863  0.84831483  1
  H  H57  1  0.93908881  0.60869766  0.76471629  1
  H  H58  1  0.88998208  0.49822369  0.00775475  1
  H  H59  1  0.95267066  0.45649700  0.09139234  1
  H  H60  1  0.10952498  0.48691158  0.99275442  1
  H  H61  1  0.04679565  0.52861318  0.90912390  1
  H  H62  1  0.99765649  0.42668529  0.15143214  1
  H  H63  1  0.06032366  0.38954417  0.23481670  1
  H  H64  1  0.21801142  0.42317338  0.13656739  1
  H  H65  1  0.15523624  0.45980055  0.05323277  1
  H  H66  1  0.40920285  0.33194481  0.21572037  1
  H  H67  1  0.46777586  0.37238933  0.12968628  1
  H  H68  1  0.36923643  0.52221185  0.06860167  1
  H  H69  1  0.31099684  0.48189294  0.15486450  1
  H  H70  1  0.51223457  0.40231730  0.06925729  1
  H  H71  1  0.57504520  0.44412402  0.98569645  1
  H  H72  1  0.47520329  0.59342181  0.92290886  1
  H  H73  1  0.41238082  0.55157259  0.00648080  1
  H  H74  1  0.62026005  0.47415749  0.92580067  1
  H  H75  1  0.68680383  0.51711521  0.84485390  1
  H  H76  1  0.59023600  0.66794813  0.78321247  1
  H  H77  1  0.52330454  0.62476337  0.86393344  1
  C  C78  1  0.32011776  0.23980881  0.38014651  1
  C  C79  1  0.32011776  0.38004468  0.38014433  1
  C  C80  1  0.32011776  0.38004651  0.23990917  1
  C  C81  1  0.17988224  0.23980881  0.38014651  1
  C  C82  1  0.17988224  0.38004468  0.38014432  1
  C  C83  1  0.17988224  0.38004651  0.23990917  1
  C  C84  1  0.82011776  0.76012495  0.61998597  1
  C  C85  1  0.82011776  0.61988908  0.61998816  1
  C  C86  1  0.82011776  0.61988725  0.76022331  1
  C  C87  1  0.67988224  0.76012495  0.61998597  1
  C  C88  1  0.67988224  0.61988908  0.61998816  1
  C  C89  1  0.67988225  0.61988725  0.76022331  1
  C  C90  1  0.14386598  0.40405567  0.40415525  1
  C  C91  1  0.16638579  0.44823074  0.40963307  1
  C  C92  1  0.12907598  0.47417076  0.43079805  1
  C  C93  1  0.06919275  0.45597256  0.44637834  1
  C  C94  1  0.04627869  0.41244471  0.43997027  1
  C  C95  1  0.08369573  0.38635442  0.41900424  1
  C  C96  1  0.03254713  0.48098369  0.46894191  1
  C  C97  1  0.05617955  0.52352925  0.47656124  1
  C  C98  1  0.02020071  0.54756024  0.50053979  1
  C  C99  1  0.96060301  0.52894728  0.51695113  1
  C  C100  1  0.93663032  0.48699687  0.50854219  1
  C  C101  1  0.97262120  0.46300491  0.48449541  1
  C  C102  1  0.92528337  0.55188699  0.54237809  1
  C  C103  1  0.94937549  0.59400973  0.55041405  1
  C  C104  1  0.91475693  0.61610721  0.57710251  1
  C  C105  1  0.85613403  0.59587810  0.59597723  1
  C  C106  1  0.83173394  0.55420435  0.58731820  1
  C  C107  1  0.86626528  0.53231551  0.56034815  1
  C  C108  1  0.64386598  0.59587810  0.59597723  1
  C  C109  1  0.66401435  0.54840063  0.59529306  1
  C  C110  1  0.62644803  0.52269269  0.57405733  1
  C  C111  1  0.56867220  0.54443551  0.55360720  1
  C  C112  1  0.54804464  0.59133913  0.55520164  1
  C  C113  1  0.58573696  0.61718046  0.57624353  1
  C  C114  1  0.53189490  0.51953986  0.53101095  1
  C  C115  1  0.55335871  0.47351328  0.52823634  1
  C  C116  1  0.51737687  0.44948143  0.50426054  1
  C  C117  1  0.45995317  0.47157294  0.48300356  1
  C  C118  1  0.43807435  0.51706561  0.48655353  1
  C  C119  1  0.47406235  0.54106128  0.51059841  1
  C  C120  1  0.42476745  0.44851760  0.45760802  1
  C  C121  1  0.44673564  0.40286575  0.45443676  1
  C  C122  1  0.41236346  0.38054064  0.42782100  1
  C  C123  1  0.35613402  0.40405567  0.40415525  1
  C  C124  1  0.33380024  0.44931020  0.40793413  1
  C  C125  1  0.36805864  0.47144628  0.43482857  1
  C  C126  1  0.35613313  0.19178852  0.40415640  1
  C  C127  1  0.38820304  0.17646529  0.37035181  1
  C  C128  1  0.42681821  0.13018125  0.39442711  1
  C  C129  1  0.43342937  0.09929818  0.45232630  1
  C  C130  1  0.40221275  0.11519312  0.48612240  1
  C  C131  1  0.36339422  0.16136805  0.46203413  1
  C  C132  1  0.47077366  0.05216286  0.47633938  1
  C  C133  1  0.50066072  0.03565455  0.44243410  1
  C  C134  1  0.53668306  0.98767237  0.46640292  1
  C  C135  1  0.54271510  0.95618838  0.52430674  1
  C  C136  1  0.51359815  0.97316147  0.55819316  1
  C  C137  1  0.47761320  0.02120393  0.53419274  1
  C  C138  1  0.57731051  0.90736623  0.54828097  1
  C  C139  1  0.60657040  0.89075878  0.51419210  1
  C  C140  1  0.63997254  0.84120783  0.53802720  1
  C  C141  1  0.64386687  0.80814524  0.59597608  1
  C  C142  1  0.61521162  0.82511334  0.63009015  1
  C  C143  1  0.58206639  0.87484396  0.60622129  1
  C  C144  1  0.85613313  0.80814524  0.59597608  1
  C  C145  1  0.85503891  0.84432386  0.53839168  1
  C  C146  1  0.88849083  0.89385494  0.51486675  1
  C  C147  1  0.92294216  0.90723073  0.54898226  1
  C  C148  1  0.92318943  0.87154963  0.60669630  1
  C  C149  1  0.88991163  0.82189029  0.63019541  1
  C  C150  1  0.95764574  0.95602672  0.52518712  1
  C  C151  1  0.95843852  0.99083099  0.46735480  1
  C  C152  1  0.99440993  0.03884520  0.44332895  1
  C  C153  1  0.02963850  0.05196893  0.47719406  1
  C  C154  1  0.02812859  0.01763516  0.53509303  1
  C  C155  1  0.99208256  0.96963111  0.55911902  1
  C  C156  1  0.06691466  0.09910521  0.45303027  1
  C  C157  1  0.06800020  0.13343011  0.39514981  1
  C  C158  1  0.10637420  0.17985438  0.37070233  1
  C  C159  1  0.14386687  0.19178852  0.40415640  1
  C  C160  1  0.14222746  0.15783154  0.46212728  1
  C  C161  1  0.10358730  0.11155654  0.48658729  1
  C  C162  1  0.85613459  0.59587626  0.80824573  1
  C  C163  1  0.82900999  0.57254550  0.86079342  1
  C  C164  1  0.86488755  0.54582822  0.90879857  1
  C  C165  1  0.92789594  0.54236478  0.90421584  1
  C  C166  1  0.95494612  0.56480857  0.85167985  1
  C  C167  1  0.91906595  0.59173259  0.80365757  1
  C  C168  1  0.96381206  0.51697364  0.95224878  1
  C  C169  1  0.93669956  0.49586223  0.00460119  1
  C  C170  1  0.97266715  0.47184103  0.05261728  1
  C  C171  1  0.03577111  0.46902421  0.04821116  1
  C  C172  1  0.06281675  0.48934659  0.99592033  1
  C  C173  1  0.02680814  0.51332370  0.94789326  1
  C  C174  1  0.07182950  0.44646257  0.09611276  1
  C  C175  1  0.04451892  0.42594893  0.14829446  1
  C  C176  1  0.08052034  0.40462323  0.19621026  1
  C  C177  1  0.14386542  0.40405750  0.19188675  1
  C  C178  1  0.17116302  0.42394979  0.13973280  1
  C  C179  1  0.13510746  0.44500900  0.09183294  1
  C  C180  1  0.35613459  0.40405750  0.19188674  1
  C  C181  1  0.40079175  0.37244723  0.18447963  1
  C  C182  1  0.43440806  0.39565080  0.13505250  1
  C  C183  1  0.42325011  0.45045202  0.09299514  1
  C  C184  1  0.37782854  0.48177171  0.09995665  1
  C  C185  1  0.34437362  0.45861878  0.14950404  1
  C  C186  1  0.45806750  0.47402442  0.04427126  1
  C  C187  1  0.50444169  0.44299350  0.03813157  1
  C  C188  1  0.54044376  0.46695874  0.99013716  1
  C  C189  1  0.53006742  0.52200187  0.94833458  1
  C  C190  1  0.48307571  0.55277195  0.95406643  1
  C  C191  1  0.44702302  0.52875978  0.00206578  1
  C  C192  1  0.56721239  0.54642064  0.90111628  1
  C  C193  1  0.61391292  0.51537240  0.89547707  1
  C  C194  1  0.65216672  0.54005347  0.84897766  1
  C  C195  1  0.64386542  0.59587626  0.80824574  1
  C  C196  1  0.59665169  0.62675477  0.81354264  1
  C  C197  1  0.55818467  0.60195797  0.85992606  1
  O  O198  1  0.30179204  0.25604556  0.40846413  1
  O  O199  1  0.30179204  0.40836221  0.33559032  1
  O  O200  1  0.30179204  0.33548845  0.25615311  1
  O  O201  1  0.30179204  0.25604415  0.33559269  1
  O  O202  1  0.30179204  0.40836157  0.25615198  1
  O  O203  1  0.30179204  0.33549050  0.40846290  1
  O  O204  1  0.19820796  0.25604556  0.40846413  1
  O  O205  1  0.19820796  0.40836221  0.33559032  1
  O  O206  1  0.19820796  0.33548845  0.25615311  1
  O  O207  1  0.19820796  0.25604415  0.33559269  1
  O  O208  1  0.19820796  0.40836157  0.25615198  1
  O  O209  1  0.19820796  0.33549050  0.40846290  1
  O  O210  1  0.25000413  0.33333333  0.33336759  1
  O  O211  1  0.80179205  0.74388820  0.59166835  1
  O  O212  1  0.80179205  0.59157155  0.66454216  1
  O  O213  1  0.80179205  0.66444531  0.74397937  1
  O  O214  1  0.80179205  0.74388961  0.66453979  1
  O  O215  1  0.80179205  0.59157219  0.74398051  1
  O  O216  1  0.80179205  0.66444327  0.59166958  1
  O  O217  1  0.69820796  0.74388820  0.59166835  1
  O  O218  1  0.69820796  0.59157155  0.66454216  1
  O  O219  1  0.69820796  0.66444531  0.74397937  1
  O  O220  1  0.69820796  0.74388961  0.66453979  1
  O  O221  1  0.69820796  0.59157219  0.74398050  1
  O  O222  1  0.69820796  0.66444327  0.59166958  1
  O  O223  1  0.75000414  0.66663032  0.66670302  1
